# generated using pymatgen
data_X389Li192P32(S5Cl)32
_symmetry_space_group_name_H-M   'P 1'
_cell_length_a   20.31231100
_cell_length_b   20.31233900
_cell_length_c   20.31242400
_cell_angle_alpha   90.00018617
_cell_angle_beta   90.00063749
_cell_angle_gamma   89.99892812
_symmetry_Int_Tables_number   1
_chemical_formula_structural   X389Li192P32(S5Cl)32
_chemical_formula_sum   'X389 Li192 P32 S160 Cl32'
_cell_volume   8380.71412612
_cell_formula_units_Z   1
loop_
 _symmetry_equiv_pos_site_id
 _symmetry_equiv_pos_as_xyz
  1  'x, y, z'
loop_
 _atom_site_type_symbol
 _atom_site_label
 _atom_site_symmetry_multiplicity
 _atom_site_fract_x
 _atom_site_fract_y
 _atom_site_fract_z
 _atom_site_occupancy
  Li  Li1  1  0.020544  0.145773  0.312663  1
  Li  Li2  1  0.038683  0.155277  0.795001  1
  Li  Li3  1  0.145049  0.654088  0.503363  1
  Li  Li4  1  0.086151  0.737022  0.850806  1
  Li  Li5  1  0.718638  0.040100  0.371113  1
  Li  Li6  1  0.599081  0.213057  0.792087  1
  Li  Li7  1  0.760981  0.599410  0.170426  1
  Li  Li8  1  0.730056  0.529729  0.866483  1
  Li  Li9  1  0.150078  0.232716  0.416977  1
  Li  Li10  1  0.166688  0.012241  0.852807  1
  Li  Li11  1  0.273808  0.476182  0.359039  1
  Li  Li12  1  0.279862  0.545470  0.644963  1
  Li  Li13  1  0.595480  0.227326  0.332860  1
  Li  Li14  1  0.745845  0.332936  0.911688  1
  Li  Li15  1  0.508209  0.399517  0.573692  1
  Li  Li16  1  0.590138  0.733848  0.834442  1
  Li  Li17  1  0.130071  0.014099  0.301802  1
  Li  Li18  1  0.164945  0.104702  0.760780  1
  Li  Li19  1  0.160177  0.568276  0.284236  1
  Li  Li20  1  0.297008  0.577821  0.807073  1
  Li  Li21  1  0.606777  0.046883  0.475853  1
  Li  Li22  1  0.518396  0.098945  0.932038  1
  Li  Li23  1  0.668907  0.667880  0.483864  1
  Li  Li24  1  0.527643  0.576159  0.899241  1
  Li  Li25  1  0.038464  0.103476  0.467235  1
  Li  Li26  1  0.156641  0.141238  0.994355  1
  Li  Li27  1  0.009221  0.660733  0.364699  1
  Li  Li28  1  0.220814  0.657098  0.941329  1
  Li  Li29  1  0.657176  0.087946  0.261569  1
  Li  Li30  1  0.670268  0.024709  0.845984  1
  Li  Li31  1  0.516546  0.570967  0.403398  1
  Li  Li32  1  0.731935  0.728477  0.906748  1
  Li  Li33  1  0.245288  0.088435  0.333539  1
  Li  Li34  1  0.023991  0.090852  0.924915  1
  Li  Li35  1  0.241558  0.655678  0.406765  1
  Li  Li36  1  0.085232  0.856212  0.750099  1
  Li  Li37  1  0.739286  0.178933  0.417486  1
  Li  Li38  1  0.638026  0.224967  0.982385  1
  Li  Li39  1  0.825107  0.760732  0.408453  1
  Li  Li40  1  0.682696  0.683037  0.062582  1
  Li  Li41  1  0.270992  0.083497  0.171425  1
  Li  Li42  1  0.245969  0.151322  0.893732  1
  Li  Li43  1  0.111277  0.711237  0.283591  1
  Li  Li44  1  0.990783  0.646044  0.144339  1
  Li  Li45  1  0.512678  0.102342  0.385247  1
  Li  Li46  1  0.850441  0.004920  0.838719  1
  Li  Li47  1  0.744601  0.587958  0.344170  1
  Li  Li48  1  0.653950  0.582554  0.760372  1
  Li  Li49  1  0.095733  0.511447  0.897526  1
  Li  Li50  1  0.086070  0.524428  0.414480  1
  Li  Li51  1  0.247376  0.832195  0.912857  1
  Li  Li52  1  0.112431  0.895701  0.519018  1
  Li  Li53  1  0.724996  0.313364  0.094679  1
  Li  Li54  1  0.685079  0.410530  0.727279  1
  Li  Li55  1  0.589583  0.731721  0.336262  1
  Li  Li56  1  0.739011  0.907739  0.676853  1
  Li  Li57  1  0.159520  0.262215  0.078500  1
  Li  Li58  1  0.149023  0.249984  0.582967  1
  Li  Li59  1  0.249670  0.848025  0.079147  1
  Li  Li60  1  0.224757  0.892112  0.720033  1
  Li  Li61  1  0.850920  0.325386  0.000919  1
  Li  Li62  1  0.631188  0.259572  0.605787  1
  Li  Li63  1  0.657219  0.919130  0.227443  1
  Li  Li64  1  0.550833  0.866249  0.706723  1
  Li  Li65  1  0.093077  0.412990  0.018480  1
  Li  Li66  1  0.213721  0.359783  0.519779  1
  Li  Li67  1  0.140484  0.780419  0.041206  1
  Li  Li68  1  0.163437  0.772354  0.600034  1
  Li  Li69  1  0.591739  0.412817  0.012570  1
  Li  Li70  1  0.539543  0.361929  0.710692  1
  Li  Li71  1  0.593867  0.773244  0.159621  1
  Li  Li72  1  0.709839  0.769424  0.619234  1
  Li  Li73  1  0.014475  0.341547  0.166573  1
  Li  Li74  1  0.925995  0.408129  0.485402  1
  Li  Li75  1  0.031755  0.868434  0.169004  1
  Li  Li76  1  0.019347  0.960778  0.619914  1
  Li  Li77  1  0.485343  0.334275  0.150717  1
  Li  Li78  1  0.621723  0.494541  0.609568  1
  Li  Li79  1  0.655752  0.843658  0.006246  1
  Li  Li80  1  0.404037  0.845152  0.771412  1
  Li  Li81  1  0.203906  0.382800  0.228430  1
  Li  Li82  1  0.082545  0.478017  0.585938  1
  Li  Li83  1  0.097737  0.925697  0.020882  1
  Li  Li84  1  0.154243  0.991516  0.663137  1
  Li  Li85  1  0.721220  0.456593  0.155609  1
  Li  Li86  1  0.645341  0.352452  0.499484  1
  Li  Li87  1  0.605276  0.993479  0.090714  1
  Li  Li88  1  0.659946  0.833667  0.505828  1
  Li  Li89  1  0.296393  0.229775  0.104647  1
  Li  Li90  1  0.232571  0.406382  0.668348  1
  Li  Li91  1  0.204519  0.881371  0.213977  1
  Li  Li92  1  0.021634  0.801512  0.645533  1
  Li  Li93  1  0.637254  0.526766  0.281311  1
  Li  Li94  1  0.737209  0.347530  0.597318  1
  Li  Li95  1  0.740244  0.847115  0.107011  1
  Li  Li96  1  0.777351  0.117094  0.737025  1
  Li  Li97  1  0.486440  0.160746  0.156202  1
  Li  Li98  1  0.460012  0.178226  0.660400  1
  Li  Li99  1  0.336152  0.510320  0.143102  1
  Li  Li100  1  0.146483  0.522886  0.743912  1
  Li  Li101  1  0.837727  0.087487  0.247629  1
  Li  Li102  1  0.623823  0.205128  0.471856  1
  Li  Li103  1  0.900111  0.519595  0.082611  1
  Li  Li104  1  0.871666  0.504895  0.630479  1
  Li  Li105  1  0.356126  0.965798  0.262692  1
  Li  Li106  1  0.295015  0.123950  0.708536  1
  Li  Li107  1  0.352320  0.642403  0.019208  1
  Li  Li108  1  0.484053  0.645194  0.624458  1
  Li  Li109  1  0.774250  0.020675  0.146401  1
  Li  Li110  1  0.888540  0.057155  0.547119  1
  Li  Li111  1  0.868665  0.547142  0.221727  1
  Li  Li112  1  0.850401  0.739763  0.606602  1
  Li  Li113  1  0.415019  0.259366  0.318852  1
  Li  Li114  1  0.445810  0.034747  0.621360  1
  Li  Li115  1  0.447723  0.635207  0.240529  1
  Li  Li116  1  0.355862  0.688541  0.496551  1
  Li  Li117  1  0.985685  0.133088  0.142319  1
  Li  Li118  1  0.953687  0.224436  0.636503  1
  Li  Li119  1  0.843451  0.744119  0.104547  1
  Li  Li120  1  0.758011  0.591617  0.658183  1
  Li  Li121  1  0.154578  0.988368  0.153238  1
  Li  Li122  1  0.294760  0.019754  0.631812  1
  Li  Li123  1  0.272668  0.700034  0.113984  1
  Li  Li124  1  0.355611  0.412577  0.754767  1
  Li  Li125  1  0.888912  0.231329  0.161314  1
  Li  Li126  1  0.845529  0.009539  0.681314  1
  Li  Li127  1  0.838995  0.656472  0.011824  1
  Li  Li128  1  0.963939  0.610533  0.552781  1
  Li  Li129  1  0.343717  0.157952  0.997368  1
  Li  Li130  1  0.264081  0.136514  0.529490  1
  Li  Li131  1  0.482644  0.597024  0.105709  1
  Li  Li132  1  0.388178  0.522078  0.526401  1
  Li  Li133  1  0.756411  0.163936  0.099064  1
  Li  Li134  1  0.755561  0.168828  0.587110  1
  Li  Li135  1  0.026692  0.621632  0.963042  1
  Li  Li136  1  0.969129  0.645577  0.707161  1
  Li  Li137  1  0.411378  0.017038  0.092081  1
  Li  Li138  1  0.401255  0.104260  0.501583  1
  Li  Li139  1  0.300021  0.602377  0.233237  1
  Li  Li140  1  0.290598  0.715199  0.614567  1
  Li  Li141  1  0.858373  0.159296  0.013462  1
  Li  Li142  1  0.083755  0.339037  0.736122  1
  Li  Li143  1  0.154582  0.757015  0.419269  1
  Li  Li144  1  0.809526  0.642470  0.528206  1
  Li  Li145  1  0.603409  0.345054  0.237097  1
  Li  Li146  1  0.253022  0.415378  0.837953  1
  Li  Li147  1  0.293139  0.841185  0.474588  1
  Li  Li148  1  0.365514  0.780943  0.961937  1
  Li  Li149  1  0.754833  0.406967  0.343987  1
  Li  Li150  1  0.151688  0.246547  0.902880  1
  Li  Li151  1  0.844682  0.918265  0.266588  1
  Li  Li152  1  0.985105  0.918154  0.913829  1
  Li  Li153  1  0.346777  0.410977  0.254374  1
  Li  Li154  1  0.403384  0.268811  0.835051  1
  Li  Li155  1  0.402989  0.992970  0.394844  1
  Li  Li156  1  0.333587  0.996609  0.817814  1
  Li  Li157  1  0.871809  0.491361  0.361546  1
  Li  Li158  1  0.832357  0.424079  0.768677  1
  Li  Li159  1  0.898977  0.980085  0.410962  1
  Li  Li160  1  0.907052  0.772103  0.836020  1
  Li  Li161  1  0.290347  0.272698  0.398292  1
  Li  Li162  1  0.285983  0.334351  0.958695  1
  Li  Li163  1  0.453917  0.874391  0.455814  1
  Li  Li164  1  0.426941  0.690132  0.818965  1
  Li  Li165  1  0.992537  0.367749  0.353826  1
  Li  Li166  1  0.914444  0.270311  0.838936  1
  Li  Li167  1  0.833675  0.855880  0.498570  1
  Li  Li168  1  0.842010  0.841865  0.989245  1
  Li  Li169  1  0.476855  0.402262  0.401284  1
  Li  Li170  1  0.407238  0.399420  0.989134  1
  Li  Li171  1  0.263587  0.908590  0.341147  1
  Li  Li172  1  0.409665  0.742164  0.151447  1
  Li  Li173  1  0.816584  0.320249  0.470523  1
  Li  Li174  1  0.916556  0.482419  0.905962  1
  Li  Li175  1  0.749315  0.902680  0.355821  1
  Li  Li176  1  0.757499  0.902512  0.838625  1
  Li  Li177  1  0.328171  0.245430  0.582824  1
  Li  Li178  1  0.394392  0.493165  0.890889  1
  Li  Li179  1  0.469783  0.870387  0.283821  1
  Li  Li180  1  0.513821  0.893326  0.087483  1
  Li  Li181  1  0.853222  0.400717  0.253122  1
  Li  Li182  1  0.746138  0.164952  0.911977  1
  Li  Li183  1  0.969886  0.841165  0.351629  1
  Li  Li184  1  0.910877  0.013847  0.079695  1
  Li  Li185  1  0.167662  0.496856  0.152543  1
  Li  Li186  1  0.492012  0.390704  0.875125  1
  Li  Li187  1  0.404408  0.766349  0.350466  1
  Li  Li188  1  0.406499  0.960113  0.945383  1
  Li  Li189  1  0.898726  0.259777  0.336413  1
  Li  Li190  1  0.842063  0.589340  0.756027  1
  Li  Li191  1  0.887975  0.705014  0.234329  1
  Li  Li192  1  0.644739  0.021462  0.696640  1
  Cl  Cl193  1  0.370663  0.620999  0.601364  1
  Cl  Cl194  1  0.117303  0.627943  0.886481  1
  Cl  Cl195  1  0.640830  0.864265  0.625024  1
  Cl  Cl196  1  0.862534  0.373318  0.884891  1
  Cl  Cl197  1  0.373963  0.126849  0.113570  1
  Cl  Cl198  1  0.370330  0.363862  0.360274  1
  Cl  Cl199  1  0.629135  0.620001  0.370891  1
  Cl  Cl200  1  0.123978  0.378791  0.129674  1
  Cl  Cl201  1  0.130999  0.371074  0.621380  1
  Cl  Cl202  1  0.632492  0.623046  0.868856  1
  Cl  Cl203  1  0.872957  0.882457  0.879772  1
  Cl  Cl204  1  0.121902  0.115107  0.374464  1
  Cl  Cl205  1  0.630436  0.136189  0.883872  1
  Cl  Cl206  1  0.627746  0.377415  0.125667  1
  Cl  Cl207  1  0.856447  0.122344  0.639901  1
  Cl  Cl208  1  0.359600  0.871520  0.877878  1
  Cl  Cl209  1  0.003192  0.997692  0.999341  1
  Cl  Cl210  1  0.985360  0.005729  0.510877  1
  Cl  Cl211  1  0.007645  0.504717  0.982793  1
  Cl  Cl212  1  0.001544  0.503986  0.502238  1
  Cl  Cl213  1  0.498967  0.996245  0.016022  1
  Cl  Cl214  1  0.486469  0.019995  0.478237  1
  Cl  Cl215  1  0.493459  0.481652  0.968715  1
  Cl  Cl216  1  0.491859  0.485131  0.487978  1
  Cl  Cl217  1  0.977864  0.248187  0.243350  1
  Cl  Cl218  1  0.995449  0.254063  0.747836  1
  Cl  Cl219  1  0.996363  0.740691  0.270547  1
  Cl  Cl220  1  0.005194  0.757142  0.759187  1
  Cl  Cl221  1  0.509935  0.259789  0.240451  1
  Cl  Cl222  1  0.497477  0.258858  0.749598  1
  Cl  Cl223  1  0.490844  0.753274  0.249284  1
  Cl  Cl224  1  0.495482  0.766200  0.765479  1
  S  S225  1  0.238334  0.993836  0.253044  1
  S  S226  1  0.242352  0.011922  0.742870  1
  S  S227  1  0.252281  0.492774  0.241633  1
  S  S228  1  0.258233  0.490098  0.745913  1
  S  S229  1  0.748136  0.997858  0.262996  1
  S  S230  1  0.755777  0.000004  0.759288  1
  S  S231  1  0.762395  0.501849  0.259134  1
  S  S232  1  0.751307  0.511548  0.750131  1
  S  S233  1  0.242325  0.228701  0.993228  1
  S  S234  1  0.235548  0.247659  0.501273  1
  S  S235  1  0.258091  0.750297  0.006224  1
  S  S236  1  0.239439  0.735266  0.504376  1
  S  S237  1  0.756869  0.245903  0.001848  1
  S  S238  1  0.721597  0.257297  0.514320  1
  S  S239  1  0.760151  0.757754  0.017580  1
  S  S240  1  0.757749  0.752378  0.512703  1
  S  S241  1  0.435004  0.193227  0.426375  1
  S  S242  1  0.440178  0.194101  0.929292  1
  S  S243  1  0.454236  0.675801  0.420408  1
  S  S244  1  0.449599  0.675776  0.947638  1
  S  S245  1  0.951487  0.182957  0.419723  1
  S  S246  1  0.949277  0.197106  0.941417  1
  S  S247  1  0.935252  0.692786  0.456594  1
  S  S248  1  0.935640  0.702985  0.941322  1
  S  S249  1  0.206581  0.054950  0.063493  1
  S  S250  1  0.195516  0.041390  0.556831  1
  S  S251  1  0.196553  0.561102  0.053589  1
  S  S252  1  0.180519  0.558202  0.565963  1
  S  S253  1  0.696981  0.062304  0.057969  1
  S  S254  1  0.683702  0.063400  0.574011  1
  S  S255  1  0.699170  0.550261  0.074248  1
  S  S256  1  0.703123  0.563727  0.553356  1
  S  S257  1  0.304326  0.056398  0.436460  1
  S  S258  1  0.313646  0.053448  0.934713  1
  S  S259  1  0.303134  0.559483  0.445863  1
  S  S260  1  0.305649  0.562221  0.935288  1
  S  S261  1  0.804894  0.065588  0.460049  1
  S  S262  1  0.812423  0.064215  0.940589  1
  S  S263  1  0.815418  0.559651  0.439800  1
  S  S264  1  0.818860  0.549398  0.955592  1
  S  S265  1  0.062177  0.185900  0.063017  1
  S  S266  1  0.042638  0.191439  0.553927  1
  S  S267  1  0.053755  0.695367  0.055138  1
  S  S268  1  0.052081  0.704541  0.571555  1
  S  S269  1  0.547308  0.188934  0.053231  1
  S  S270  1  0.539555  0.190597  0.555175  1
  S  S271  1  0.559037  0.685828  0.072902  1
  S  S272  1  0.563603  0.686152  0.546320  1
  S  S273  1  0.129782  0.127926  0.874412  1
  S  S274  1  0.125367  0.637923  0.382202  1
  S  S275  1  0.631631  0.124822  0.383129  1
  S  S276  1  0.438316  0.441806  0.180975  1
  S  S277  1  0.446789  0.446305  0.681782  1
  S  S278  1  0.446428  0.942713  0.184143  1
  S  S279  1  0.444769  0.941198  0.703044  1
  S  S280  1  0.948239  0.452578  0.190970  1
  S  S281  1  0.935937  0.432446  0.700904  1
  S  S282  1  0.933748  0.945906  0.183542  1
  S  S283  1  0.943942  0.945558  0.711549  1
  S  S284  1  0.191736  0.295571  0.311687  1
  S  S285  1  0.187915  0.315268  0.804010  1
  S  S286  1  0.193205  0.804981  0.309521  1
  S  S287  1  0.184606  0.806822  0.808481  1
  S  S288  1  0.687355  0.306655  0.313808  1
  S  S289  1  0.676019  0.312612  0.812752  1
  S  S290  1  0.679578  0.812040  0.302713  1
  S  S291  1  0.691577  0.802123  0.817920  1
  S  S292  1  0.304168  0.313361  0.193608  1
  S  S293  1  0.307681  0.314799  0.687858  1
  S  S294  1  0.305994  0.802421  0.191572  1
  S  S295  1  0.309642  0.806197  0.700591  1
  S  S296  1  0.800673  0.307995  0.193012  1
  S  S297  1  0.795746  0.326990  0.699992  1
  S  S298  1  0.810354  0.807856  0.200476  1
  S  S299  1  0.804498  0.805979  0.698378  1
  S  S300  1  0.067491  0.450956  0.309920  1
  S  S301  1  0.066322  0.446262  0.799781  1
  S  S302  1  0.047300  0.924780  0.297054  1
  S  S303  1  0.064142  0.947701  0.823373  1
  S  S304  1  0.554627  0.436683  0.303708  1
  S  S305  1  0.565656  0.449354  0.795987  1
  S  S306  1  0.561387  0.947685  0.302302  1
  S  S307  1  0.585989  0.954217  0.784960  1
  S  S308  1  0.138374  0.875340  0.118058  1
  S  S309  1  0.114487  0.879538  0.637609  1
  S  S310  1  0.619907  0.378386  0.619290  1
  S  S311  1  0.626735  0.878758  0.116905  1
  S  S312  1  0.204956  0.188051  0.180770  1
  S  S313  1  0.192961  0.196180  0.687935  1
  S  S314  1  0.198871  0.676064  0.207120  1
  S  S315  1  0.202074  0.685553  0.693242  1
  S  S316  1  0.684431  0.193081  0.195089  1
  S  S317  1  0.689609  0.196081  0.699403  1
  S  S318  1  0.684395  0.692787  0.193018  1
  S  S319  1  0.690893  0.685995  0.702406  1
  S  S320  1  0.438365  0.060290  0.295261  1
  S  S321  1  0.449348  0.038320  0.837627  1
  S  S322  1  0.428073  0.539748  0.313957  1
  S  S323  1  0.444567  0.562225  0.804538  1
  S  S324  1  0.936464  0.050398  0.314996  1
  S  S325  1  0.952168  0.068635  0.822871  1
  S  S326  1  0.947785  0.567186  0.308464  1
  S  S327  1  0.947156  0.560611  0.809439  1
  S  S328  1  0.057051  0.059348  0.206987  1
  S  S329  1  0.060233  0.062466  0.700181  1
  S  S330  1  0.069028  0.566936  0.196159  1
  S  S331  1  0.047589  0.554834  0.679695  1
  S  S332  1  0.560479  0.065088  0.184443  1
  S  S333  1  0.533329  0.078941  0.696648  1
  S  S334  1  0.547277  0.565526  0.203830  1
  S  S335  1  0.557658  0.569100  0.684191  1
  S  S336  1  0.314533  0.188315  0.305593  1
  S  S337  1  0.308779  0.198292  0.802323  1
  S  S338  1  0.317917  0.691734  0.316399  1
  S  S339  1  0.302725  0.696391  0.827921  1
  S  S340  1  0.804114  0.190380  0.312185  1
  S  S341  1  0.806415  0.207150  0.812866  1
  S  S342  1  0.797863  0.691800  0.312121  1
  S  S343  1  0.812656  0.692482  0.819190  1
  S  S344  1  0.362318  0.122964  0.610686  1
  S  S345  1  0.373397  0.628725  0.137946  1
  S  S346  1  0.866679  0.118470  0.128257  1
  S  S347  1  0.873979  0.629429  0.133459  1
  S  S348  1  0.872326  0.623047  0.633873  1
  S  S349  1  0.184021  0.448258  0.440916  1
  S  S350  1  0.188666  0.440793  0.938844  1
  S  S351  1  0.200981  0.924266  0.441101  1
  S  S352  1  0.194678  0.939147  0.945744  1
  S  S353  1  0.690346  0.448290  0.436220  1
  S  S354  1  0.694908  0.443213  0.949083  1
  S  S355  1  0.687718  0.950237  0.456458  1
  S  S356  1  0.694585  0.946854  0.938162  1
  S  S357  1  0.423679  0.300586  0.054622  1
  S  S358  1  0.427756  0.313541  0.541114  1
  S  S359  1  0.444837  0.802123  0.050367  1
  S  S360  1  0.429940  0.785876  0.536808  1
  S  S361  1  0.945575  0.301732  0.070554  1
  S  S362  1  0.920370  0.296870  0.539046  1
  S  S363  1  0.938565  0.815776  0.065987  1
  S  S364  1  0.935499  0.818445  0.564969  1
  S  S365  1  0.054593  0.312830  0.440996  1
  S  S366  1  0.065041  0.313240  0.956770  1
  S  S367  1  0.049754  0.815160  0.445836  1
  S  S368  1  0.054366  0.817033  0.947117  1
  S  S369  1  0.553154  0.303620  0.432967  1
  S  S370  1  0.554422  0.311912  0.947601  1
  S  S371  1  0.556746  0.804902  0.432121  1
  S  S372  1  0.569387  0.789980  0.941544  1
  S  S373  1  0.307940  0.436796  0.048381  1
  S  S374  1  0.297088  0.446369  0.562332  1
  S  S375  1  0.325736  0.939116  0.048205  1
  S  S376  1  0.324798  0.936268  0.549139  1
  S  S377  1  0.809944  0.429546  0.070117  1
  S  S378  1  0.812670  0.434869  0.548577  1
  S  S379  1  0.811278  0.944117  0.055743  1
  S  S380  1  0.808076  0.950265  0.575845  1
  S  S381  1  0.370784  0.379941  0.873767  1
  S  S382  1  0.378966  0.882460  0.362647  1
  S  S383  1  0.874500  0.375269  0.370662  1
  S  S384  1  0.859716  0.873514  0.381673  1
  P  P385  1  0.258550  0.996496  0.999692  1
  P  P386  1  0.256733  0.987990  0.496710  1
  P  P387  1  0.249586  0.500015  0.995872  1
  P  P388  1  0.239026  0.504998  0.503371  1
  P  P389  1  0.753175  0.004337  0.996913  1
  P  P390  1  0.745721  0.006542  0.518707  1
  P  P391  1  0.755540  0.493535  0.012684  1
  P  P392  1  0.754648  0.498579  0.493573  1
  P  P393  1  0.252796  0.245432  0.248962  1
  P  P394  1  0.248311  0.257613  0.746365  1
  P  P395  1  0.255252  0.744179  0.256725  1
  P  P396  1  0.249980  0.746350  0.756550  1
  P  P397  1  0.744419  0.247769  0.253480  1
  P  P398  1  0.743126  0.262766  0.756008  1
  P  P399  1  0.742212  0.751903  0.251708  1
  P  P400  1  0.750994  0.744951  0.758251  1
  P  P401  1  0.991630  0.994488  0.250542  1
  P  P402  1  0.005164  0.005679  0.764118  1
  P  P403  1  0.009075  0.508334  0.252417  1
  P  P404  1  0.996392  0.497512  0.746831  1
  P  P405  1  0.504750  0.004171  0.242817  1
  P  P406  1  0.502336  0.004357  0.758942  1
  P  P407  1  0.491151  0.494887  0.249712  1
  P  P408  1  0.502578  0.505668  0.740968  1
  P  P409  1  0.006354  0.249748  0.007145  1
  P  P410  1  0.992129  0.248283  0.486113  1
  P  P411  1  0.992781  0.758567  0.004201  1
  P  P412  1  0.992914  0.758258  0.507449  1
  P  P413  1  0.490258  0.249856  0.997350  1
  P  P414  1  0.487469  0.251045  0.491797  1
  P  P415  1  0.509425  0.739418  0.002459  1
  P  P416  1  0.502304  0.737831  0.486037  1
  X0+  X417  1  0.012195  0.414634  0.585366  1
  X0+  X418  1  0.512195  0.585366  0.902439  1
  X0+  X419  1  0.585366  0.512195  0.902439  1
  X0+  X420  1  0.012195  0.414634  0.097561  1
  X0+  X421  1  0.024390  0.829268  0.158537  1
  X0+  X422  1  0.146341  0.292683  0.048780  1
  X0+  X423  1  0.170732  0.341463  0.024390  1
  X0+  X424  1  0.097561  0.268293  0.170732  1
  X0+  X425  1  0.402439  0.512195  0.097561  1
  X0+  X426  1  0.341463  0.487805  0.146341  1
  X0+  X427  1  0.487805  0.390244  0.890244  1
  X0+  X428  1  0.463415  0.365854  0.951220  1
  X0+  X429  1  0.951220  0.097561  0.536585  1
  X0+  X430  1  0.975610  0.097561  0.585366  1
  X0+  X431  1  0.878049  0.219512  0.707317  1
  X0+  X432  1  0.902439  0.170732  0.731707  1
  X0+  X433  1  0.902439  0.243902  0.658537  1
  X0+  X434  1  0.951220  0.219512  0.634146  1
  X0+  X435  1  0.829268  0.829268  -0.012195  1
  X0+  X436  1  0.780488  0.853659  0.951220  1
  X0+  X437  1  0.341463  0.585366  0.243902  1
  X0+  X438  1  0.390244  0.634146  0.243902  1
  X0+  X439  1  0.146341  0.658537  0.000000  1
  X0+  X440  1  0.170732  0.658537  0.975610  1
  X0+  X441  1  0.219512  0.634146  0.951220  1
  X0+  X442  1  0.341463  0.000000  0.646341  1
  X0+  X443  1  0.463415  0.097561  0.560976  1
  X0+  X444  1  0.487805  0.097561  0.609756  1
  X0+  X445  1  0.390244  0.048780  0.536585  1
  X0+  X446  1  0.341463  0.154472  0.504065  1
  X0+  X447  1  0.252033  0.097561  0.650407  1
  X0+  X448  1  0.329268  0.097561  0.731707  1
  X0+  X449  1  0.292683  0.121951  0.707317  1
  X0+  X450  1  0.243902  0.146341  0.585366  1
  X0+  X451  1  0.390244  0.146341  0.731707  1
  X0+  X452  1  0.463415  0.121951  0.707317  1
  X0+  X453  1  0.268293  0.219512  0.609756  1
  X0+  X454  1  0.341463  0.243902  0.585366  1
  X0+  X455  1  0.390244  0.243902  0.658537  1
  X0+  X456  1  0.085366  0.341463  0.731707  1
  X0+  X457  1  0.097561  0.268293  0.658537  1
  X0+  X458  1  0.146341  0.243902  0.585366  1
  X0+  X459  1  0.146341  0.170732  0.487805  1
  X0+  X460  1  0.146341  -0.012195  0.146341  1
  X0+  X461  1  0.097561  0.975610  0.097561  1
  X0+  X462  1  0.146341  0.890244  0.243902  1
  X0+  X463  1  0.170732  0.902439  0.219512  1
  X0+  X464  1  0.195122  0.878049  0.219512  1
  X0+  X465  1  0.085366  0.902439  0.024390  1
  X0+  X466  1  0.243902  0.841463  0.097561  1
  X0+  X467  1  0.243902  0.902439  0.146341  1
  X0+  X468  1  0.219512  0.853659  0.024390  1
  X0+  X469  1  0.146341  0.829268  0.000000  1
  X0+  X470  1  0.195122  0.804878  0.926829  1
  X0+  X471  1  0.146341  0.756098  0.097561  1
  X0+  X472  1  0.878049  0.024390  0.048780  1
  X0+  X473  1  0.902439  0.000000  0.097561  1
  X0+  X474  1  0.487805  0.658537  0.646341  1
  X0+  X475  1  0.414634  0.658537  0.731707  1
  X0+  X476  1  0.292683  0.024390  0.146341  1
  X0+  X477  1  0.341463  0.024390  0.219512  1
  X0+  X478  1  0.243902  0.097561  0.170732  1
  X0+  X479  1  0.402439  0.756098  0.341463  1
  X0+  X480  1  0.390244  0.780488  0.292683  1
  X0+  X481  1  0.487805  0.853659  0.365854  1
  X0+  X482  1  0.487805  0.878049  0.390244  1
  X0+  X483  1  0.463415  0.878049  0.439024  1
  X0+  X484  1  0.463415  0.853659  0.292683  1
  X0+  X485  1  0.085366  0.024390  0.414634  1
  X0+  X486  1  0.146341  0.000000  0.341463  1
  X0+  X487  1  0.333333  0.902439  0.260163  1
  X0+  X488  1  0.292683  0.902439  0.292683  1
  X0+  X489  1  0.256098  0.902439  0.341463  1
  X0+  X490  1  0.268293  0.951220  0.365854  1
  X0+  X491  1  0.398374  0.975610  0.406504  1
  X0+  X492  1  0.341463  0.000000  0.341463  1
  X0+  X493  1  0.243902  0.073171  0.341463  1
  X0+  X494  1  0.292683  0.073171  0.317073  1
  X0+  X495  1  0.243902  0.146341  0.390244  1
  X0+  X496  1  0.170732  0.073171  0.268293  1
  X0+  X497  1  0.341463  0.841463  0.487805  1
  X0+  X498  1  0.280488  0.780488  0.390244  1
  X0+  X499  1  0.256098  0.829268  0.414634  1
  X0+  X500  1  0.341463  0.158537  0.000000  1
  X0+  X501  1  0.975610  0.121951  0.121951  1
  X0+  X502  1  0.975610  0.146341  0.146341  1
  X0+  X503  1  0.975610  0.097561  0.097561  1
  X0+  X504  1  0.756098  0.158537  0.097561  1
  X0+  X505  1  0.756098  0.097561  0.158537  1
  X0+  X506  1  0.829268  0.097561  0.243902  1
  X0+  X507  1  0.878049  0.146341  0.243902  1
  X0+  X508  1  0.835366  0.152439  0.012195  1
  X0+  X509  1  0.841463  0.243902  0.097561  1
  X0+  X510  1  0.890244  0.243902  0.146341  1
  X0+  X511  1  0.902439  0.219512  0.170732  1
  X0+  X512  1  0.097561  0.146341  0.756098  1
  X0+  X513  1  0.146341  0.097561  0.756098  1
  X0+  X514  1  0.000000  0.121951  0.878049  1
  X0+  X515  1  0.024390  0.170732  0.829268  1
  X0+  X516  1  0.329268  0.487805  0.341463  1
  X0+  X517  1  0.365854  0.463415  0.292683  1
  X0+  X518  1  0.000000  0.597561  0.390244  1
  X0+  X519  1  0.024390  0.658537  0.341463  1
  X0+  X520  1  0.097561  0.658537  0.268293  1
  X0+  X521  1  0.097561  0.707317  0.292683  1
  X0+  X522  1  0.097561  0.731707  0.341463  1
  X0+  X523  1  0.146341  0.731707  0.402439  1
  X0+  X524  1  0.146341  0.658537  0.487805  1
  X0+  X525  1  0.170732  0.658537  0.463415  1
  X0+  X526  1  0.146341  0.707317  0.463415  1
  X0+  X527  1  0.146341  0.585366  0.268293  1
  X0+  X528  1  0.243902  0.646341  0.414634  1
  X0+  X529  1  0.243902  0.585366  0.341463  1
  X0+  X530  1  0.097561  0.585366  0.487805  1
  X0+  X531  1  0.121951  0.536585  0.463415  1
  X0+  X532  1  0.097561  0.512195  0.414634  1
  X0+  X533  1  0.146341  0.512195  0.341463  1
  X0+  X534  1  0.585366  0.170732  0.756098  1
  X0+  X535  1  0.585366  0.219512  0.829268  1
  X0+  X536  1  0.256098  0.658537  0.585366  1
  X0+  X537  1  0.341463  0.731707  0.585366  1
  X0+  X538  1  0.000000  0.902439  0.609756  1
  X0+  X539  1  0.024390  0.902439  0.585366  1
  X0+  X540  1  0.146341  -0.012195  0.646341  1
  X0+  X541  1  0.231707  0.829268  0.585366  1
  X0+  X542  1  0.219512  0.780488  0.609756  1
  X0+  X543  1  0.158537  0.756098  0.585366  1
  X0+  X544  1  0.105691  0.756098  0.642276  1
  X0+  X545  1  0.158537  0.829268  0.512195  1
  X0+  X546  1  0.097561  0.890244  0.512195  1
  X0+  X547  1  0.073171  0.853659  0.731707  1
  X0+  X548  1  0.097561  0.829268  0.731707  1
  X0+  X549  1  0.158537  0.902439  0.731707  1
  X0+  X550  1  0.195122  0.878049  0.731707  1
  X0+  X551  1  0.219512  0.878049  0.707317  1
  X0+  X552  1  0.243902  0.902439  0.658537  1
  X0+  X553  1  0.390244  0.780488  0.780488  1
  X0+  X554  1  0.414634  0.756098  0.829268  1
  X0+  X555  1  0.414634  0.829268  0.756098  1
  X0+  X556  1  0.256098  0.902439  0.829268  1
  X0+  X557  1  0.341463  0.902439  0.756098  1
  X0+  X558  1  0.341463  0.951220  0.780488  1
  X0+  X559  1  0.341463  0.000000  0.829268  1
  X0+  X560  1  0.341463  0.780488  0.951220  1
  X0+  X561  1  0.341463  0.829268  0.975610  1
  X0+  X562  1  0.390244  0.951220  0.951220  1
  X0+  X563  1  0.414634  0.902439  0.975610  1
  X0+  X564  1  0.414634  0.975610  0.902439  1
  X0+  X565  1  0.487805  0.902439  0.902439  1
  X0+  X566  1  0.048780  0.707317  0.853659  1
  X0+  X567  1  0.073171  0.731707  0.829268  1
  X0+  X568  1  0.162602  0.495935  0.829268  1
  X0+  X569  1  0.219512  0.536585  0.853659  1
  X0+  X570  1  0.170732  0.585366  0.756098  1
  X0+  X571  1  0.219512  0.609756  0.780488  1
  X0+  X572  1  0.097561  0.658537  0.756098  1
  X0+  X573  1  0.317073  0.585366  0.731707  1
  X0+  X574  1  0.890244  0.268293  0.341463  1
  X0+  X575  1  0.487805  0.097561  0.097561  1
  X0+  X576  1  0.487805  0.170732  0.146341  1
  X0+  X577  1  0.658537  0.341463  0.000000  1
  X0+  X578  1  0.682927  0.317073  0.926829  1
  X0+  X579  1  0.731707  0.341463  0.073171  1
  X0+  X580  1  0.536585  0.268293  0.146341  1
  X0+  X581  1  0.585366  0.268293  0.170732  1
  X0+  X582  1  0.512195  0.341463  0.146341  1
  X0+  X583  1  0.658537  0.268293  0.097561  1
  X0+  X584  1  0.975610  0.593496  0.601626  1
  X0+  X585  1  0.975610  0.634146  0.634146  1
  X0+  X586  1  0.878049  0.707317  0.707317  1
  X0+  X587  1  0.902439  0.731707  0.658537  1
  X0+  X588  1  0.890244  0.585366  0.512195  1
  X0+  X589  1  0.878049  0.536585  0.536585  1
  X0+  X590  1  0.829268  0.646341  0.512195  1
  X0+  X591  1  0.829268  0.731707  0.597561  1
  X0+  X592  1  0.853659  0.707317  0.536585  1
  X0+  X593  1  0.841463  0.512195  0.646341  1
  X0+  X594  1  0.756098  0.585366  0.658537  1
  X0+  X595  1  0.780488  0.609756  0.707317  1
  X0+  X596  1  0.756098  0.658537  0.585366  1
  X0+  X597  1  0.780488  0.390244  0.780488  1
  X0+  X598  1  0.829268  0.414634  0.756098  1
  X0+  X599  1  0.878049  0.463415  0.951220  1
  X0+  X600  1  0.902439  0.414634  0.975610  1
  X0+  X601  1  0.902439  0.487805  0.902439  1
  X0+  X602  1  0.804878  0.560976  0.804878  1
  X0+  X603  1  0.829268  0.487805  0.829268  1
  X0+  X604  1  0.829268  0.333333  -0.008130  1
  X0+  X605  1  0.829268  0.256098  0.902439  1
  X0+  X606  1  0.780488  0.268293  0.878049  1
  X0+  X607  1  0.902439  0.268293  0.829268  1
  X0+  X608  1  0.975610  0.341463  0.829268  1
  X0+  X609  1  0.597561  0.975610  0.097561  1
  X0+  X610  1  0.650407  0.902439  0.235772  1
  X0+  X611  1  0.634146  0.951220  0.219512  1
  X0+  X612  1  0.731707  0.841463  0.097561  1
  X0+  X613  1  0.731707  0.902439  0.146341  1
  X0+  X614  1  0.707317  0.975610  0.146341  1
  X0+  X615  1  0.512195  0.886179  0.105691  1
  X0+  X616  1  0.536585  0.878049  0.048780  1
  X0+  X617  1  0.536585  0.853659  0.195122  1
  X0+  X618  1  0.609756  0.780488  0.207317  1
  X0+  X619  1  0.585366  0.756098  0.170732  1
  X0+  X620  1  0.658537  0.829268  0.012195  1
  X0+  X621  1  0.634146  0.780488  0.024390  1
  X0+  X622  1  0.634146  0.756098  0.097561  1
  X0+  X623  1  0.585366  0.012195  0.902439  1
  X0+  X624  1  0.512195  0.085366  0.902439  1
  X0+  X625  1  0.634146  0.170732  0.000000  1
  X0+  X626  1  0.658537  0.170732  0.975610  1
  X0+  X627  1  0.731707  0.085366  0.829268  1
  X0+  X628  1  0.731707  0.158537  0.902439  1
  X0+  X629  1  0.658537  0.012195  0.829268  1
  X0+  X630  1  0.658537  0.073171  0.756098  1
  X0+  X631  1  0.658537  0.414634  0.243902  1
  X0+  X632  1  0.731707  0.414634  0.170732  1
  X0+  X633  1  0.243902  0.158537  0.902439  1
  X0+  X634  1  0.146341  0.243902  0.890244  1
  X0+  X635  1  0.195122  0.219512  0.878049  1
  X0+  X636  1  0.146341  0.146341  -0.012195  1
  X0+  X637  1  0.097561  0.097561  0.975610  1
  X0+  X638  1  0.207317  0.024390  0.853659  1
  X0+  X639  1  0.146341  0.000000  0.829268  1
  X0+  X640  1  0.243902  0.073171  0.829268  1
  X0+  X641  1  0.097561  0.024390  0.902439  1
  X0+  X642  1  0.329268  0.487805  0.658537  1
  X0+  X643  1  0.170732  0.341463  0.512195  1
  X0+  X644  1  0.243902  0.341463  0.585366  1
  X0+  X645  1  0.341463  0.487805  0.841463  1
  X0+  X646  1  0.390244  0.487805  0.890244  1
  X0+  X647  1  0.256098  0.341463  0.902439  1
  X0+  X648  1  0.390244  0.268293  0.853659  1
  X0+  X649  1  0.414634  0.268293  0.829268  1
  X0+  X650  1  0.341463  0.256098  0.902439  1
  X0+  X651  1  0.292683  0.268293  0.878049  1
  X0+  X652  1  0.219512  0.390244  0.707317  1
  X0+  X653  1  0.243902  0.414634  0.658537  1
  X0+  X654  1  0.268293  0.402439  0.829268  1
  X0+  X655  1  0.268293  0.390244  0.780488  1
  X0+  X656  1  0.398374  0.349593  0.756098  1
  X0+  X657  1  0.341463  0.414634  0.756098  1
  X0+  X658  1  0.170732  0.487805  0.658537  1
  X0+  X659  1  0.390244  0.524390  0.536585  1
  X0+  X660  1  0.414634  0.512195  0.585366  1
  X0+  X661  1  0.414634  0.585366  0.512195  1
  X0+  X662  1  0.341463  0.658537  0.487805  1
  X0+  X663  1  0.829268  0.512195  0.158537  1
  X0+  X664  1  0.780488  0.512195  0.146341  1
  X0+  X665  1  0.756098  0.585366  0.170732  1
  X0+  X666  1  0.829268  0.585366  0.243902  1
  X0+  X667  1  0.975610  0.585366  0.097561  1
  X0+  X668  1  0.975610  0.634146  0.146341  1
  X0+  X669  1  0.841463  0.731707  0.097561  1
  X0+  X670  1  0.756098  0.658537  0.097561  1
  X0+  X671  1  0.780488  0.707317  0.121951  1
  X0+  X672  1  0.829268  0.646341  0.000000  1
  X0+  X673  1  0.780488  0.634146  0.024390  1
  X0+  X674  1  0.804878  0.682927  0.926829  1
  X0+  X675  1  0.902439  0.585366  0.024390  1
  X0+  X676  1  0.975610  0.390244  0.390244  1
  X0+  X677  1  0.975610  0.414634  0.414634  1
  X0+  X678  1  0.951220  0.365854  0.292683  1
  X0+  X679  1  0.463415  0.463415  0.390244  1
  X0+  X680  1  0.487805  0.414634  0.414634  1
  X0+  X681  1  0.414634  0.414634  0.487805  1
  X0+  X682  1  0.341463  0.341463  0.487805  1
  X0+  X683  1  0.512195  0.585366  0.414634  1
  X0+  X684  1  0.536585  0.536585  0.390244  1
  X0+  X685  1  0.585366  0.585366  0.487805  1
  X0+  X686  1  0.512195  0.658537  0.341463  1
  X0+  X687  1  0.743902  0.902439  0.341463  1
  X0+  X688  1  0.634146  0.975610  0.707317  1
  X0+  X689  1  0.658537  0.000000  0.658537  1
  X0+  X690  1  0.658537  0.902439  0.731707  1
  X0+  X691  1  0.756098  0.170732  0.585366  1
  X0+  X692  1  0.780488  0.146341  0.536585  1
  X0+  X693  1  0.902439  0.975610  0.902439  1
  X0+  X694  1  0.975610  0.902439  0.902439  1
  X0+  X695  1  0.902439  0.756098  0.829268  1
  X0+  X696  1  0.951220  0.780488  0.853659  1
  X0+  X697  1  0.975610  0.829268  0.829268  1
  X0+  X698  1  0.829268  0.012195  0.658537  1
  X0+  X699  1  0.804878  0.926829  0.682927  1
  X0+  X700  1  0.829268  0.902439  0.756098  1
  X0+  X701  1  0.731707  0.902439  0.658537  1
  X0+  X702  1  0.902439  0.829268  0.756098  1
  X0+  X703  1  0.756098  0.097561  0.658537  1
  X0+  X704  1  0.841463  0.487805  0.341463  1
  X0+  X705  1  0.902439  0.487805  0.390244  1
  X0+  X706  1  0.878049  0.707317  0.219512  1
  X0+  X707  1  0.902439  0.658537  0.219512  1
  X0+  X708  1  0.841463  0.341463  0.487805  1
  X0+  X709  1  0.853659  0.292683  0.463415  1
  X0+  X710  1  0.658537  0.585366  0.243902  1
  X0+  X711  1  0.707317  0.609756  0.268293  1
  X0+  X712  1  0.658537  0.500000  0.341463  1
  X0+  X713  1  0.707317  0.536585  0.365854  1
  X0+  X714  1  0.731707  0.585366  0.341463  1
  X0+  X715  1  0.829268  0.398374  0.260163  1
  X0+  X716  1  0.780488  0.390244  0.268293  1
  X0+  X717  1  0.747967  0.341463  0.398374  1
  X0+  X718  1  0.731707  0.414634  0.341463  1
  X0+  X719  1  0.658537  0.756098  0.585366  1
  X0+  X720  1  0.707317  0.780488  0.609756  1
  X0+  X721  1  0.731707  0.829268  0.585366  1
  X0+  X722  1  0.658537  0.829268  0.500000  1
  X0+  X723  1  0.585366  0.902439  0.512195  1
  X0+  X724  1  0.878049  0.780488  0.292683  1
  X0+  X725  1  0.902439  0.829268  0.268293  1
  X0+  X726  1  0.829268  0.841463  0.487805  1
  X0+  X727  1  0.780488  0.853659  0.463415  1
  X0+  X728  1  0.975610  0.853659  0.353659  1
  X0+  X729  1  0.975610  0.878049  0.390244  1
  X0+  X730  1  0.829268  0.902439  0.268293  1
  X0+  X731  1  0.853659  0.951220  0.268293  1
  X0+  X732  1  0.886179  0.975610  0.406504  1
  X0+  X733  1  0.829268  0.000000  0.341463  1
  X0+  X734  1  0.853659  0.975610  0.341463  1
  X0+  X735  1  0.878049  0.951220  0.463415  1
  X0+  X736  1  0.902439  0.902439  0.487805  1
  X0+  X737  1  0.951220  0.878049  0.463415  1
  X0+  X738  1  0.585366  0.731707  0.329268  1
  X0+  X739  1  0.780488  0.768293  0.390244  1
  X0+  X740  1  0.829268  0.756098  0.402439  1
  X0+  X741  1  0.658537  0.743902  0.414634  1
  X0+  X742  1  0.707317  0.707317  0.390244  1
  X0+  X743  1  0.731707  0.658537  0.414634  1
  X0+  X744  1  0.658537  0.658537  0.487805  1
  X0+  X745  1  0.536585  0.853659  0.707317  1
  X0+  X746  1  0.585366  0.829268  0.731707  1
  X0+  X747  1  0.609756  0.780488  0.707317  1
  X0+  X748  1  0.512195  0.829268  0.658537  1
  X0+  X749  1  0.585366  0.756098  0.658537  1
  X0+  X750  1  0.658537  0.658537  -0.012195  1
  X0+  X751  1  0.585366  0.731707  0.829268  1
  X0+  X752  1  0.609756  0.707317  0.780488  1
  X0+  X753  1  0.585366  0.658537  0.756098  1
  X0+  X754  1  0.658537  0.585366  0.756098  1
  X0+  X755  1  0.658537  0.731707  0.902439  1
  X0+  X756  1  0.512195  0.902439  0.585366  1
  X0+  X757  1  0.756098  0.902439  0.829268  1
  X0+  X758  1  0.829268  0.000000  0.829268  1
  X0+  X759  1  0.585366  0.487805  0.585366  1
  X0+  X760  1  0.609756  0.463415  0.536585  1
  X0+  X761  1  0.536585  0.463415  0.609756  1
  X0+  X762  1  0.512195  0.390244  0.597561  1
  X0+  X763  1  0.512195  0.341463  0.634146  1
  X0+  X764  1  0.536585  0.292683  0.609756  1
  X0+  X765  1  0.585366  0.268293  0.658537  1
  X0+  X766  1  0.731707  0.402439  0.658537  1
  X0+  X767  1  0.707317  0.463415  0.634146  1
  X0+  X768  1  0.658537  0.487805  0.658537  1
  X0+  X769  1  0.642276  0.341463  0.504065  1
  X0+  X770  1  0.634146  0.292683  0.512195  1
  X0+  X771  1  0.634146  0.268293  0.585366  1
  X0+  X772  1  0.707317  0.268293  0.609756  1
  X0+  X773  1  0.731707  0.341463  0.585366  1
  X0+  X774  1  0.585366  0.341463  0.731707  1
  X0+  X775  1  0.512195  0.113821  0.382114  1
  X0+  X776  1  0.512195  0.146341  0.341463  1
  X0+  X777  1  0.585366  0.227642  0.333333  1
  X0+  X778  1  0.609756  0.219512  0.292683  1
  X0+  X779  1  0.642276  0.097561  0.260163  1
  X0+  X780  1  0.585366  0.000000  0.390244  1
  X0+  X781  1  0.585366  0.024390  0.414634  1
  X0+  X782  1  0.609756  0.048780  0.463415  1
  X0+  X783  1  0.634146  0.000000  0.341463  1
  X0+  X784  1  0.731707  0.085366  0.341463  1
  X0+  X785  1  0.707317  0.048780  0.353659  1
  X0+  X786  1  0.634146  0.158537  0.487805  1
  X0+  X787  1  0.634146  0.195122  0.463415  1
  X0+  X788  1  0.721951  0.190244  0.395122  1
  X0+  X789  1  0.658537  0.243902  0.414634  1
  X0+  X790  1  0.341463  0.341463  0.000000  1
  X0+  X791  1  0.243902  0.390244  0.341463  1
  X0+  X792  1  0.268293  0.390244  0.268293  1
  X0+  X793  1  0.154472  0.487805  0.154472  1
  X0+  X794  1  0.146341  0.414634  0.243902  1
  X0+  X795  1  0.146341  0.463415  0.219512  1
  X0+  X796  1  0.219512  0.414634  0.170732  1
  X0+  X797  1  0.243902  0.646341  0.097561  1
  X0+  X798  1  0.243902  0.585366  0.146341  1
  X0+  X799  1  0.341463  0.642276  0.008130  1
  X0+  X800  1  0.341463  0.731707  0.097561  1
  X0+  X801  1  0.390244  0.731707  0.146341  1
  X0+  X802  1  0.390244  0.219512  0.219512  1
  X0+  X803  1  0.268293  0.219512  0.097561  1
  X0+  X804  1  0.024390  0.585366  0.902439  1
  X0+  X805  1  0.000000  0.146341  0.341463  1
