# generated using pymatgen
data_X329Li192P32(S5I)32
_symmetry_space_group_name_H-M   'P 1'
_cell_length_a   20.43300000
_cell_length_b   20.43300000
_cell_length_c   20.43300000
_cell_angle_alpha   90.00000000
_cell_angle_beta   90.00000000
_cell_angle_gamma   90.00000000
_symmetry_Int_Tables_number   1
_chemical_formula_structural   X329Li192P32(S5I)32
_chemical_formula_sum   'X329 Li192 P32 S160 I32'
_cell_volume   8530.93052274
_cell_formula_units_Z   1
loop_
 _symmetry_equiv_pos_site_id
 _symmetry_equiv_pos_as_xyz
  1  'x, y, z'
loop_
 _atom_site_type_symbol
 _atom_site_label
 _atom_site_symmetry_multiplicity
 _atom_site_fract_x
 _atom_site_fract_y
 _atom_site_fract_z
 _atom_site_occupancy
  Li  Li1  1  0.113165  0.219439  0.284998  1
  Li  Li2  1  0.088064  0.139240  0.767232  1
  Li  Li3  1  0.227922  0.647364  0.458449  1
  Li  Li4  1  0.079329  0.655256  0.754101  1
  Li  Li5  1  0.641599  0.020512  0.289203  1
  Li  Li6  1  0.587075  0.244410  0.844547  1
  Li  Li7  1  0.754579  0.608340  0.156305  1
  Li  Li8  1  0.763209  0.498902  0.853136  1
  Li  Li9  1  0.128793  0.257227  0.484935  1
  Li  Li10  1  0.149018  0.999881  0.842819  1
  Li  Li11  1  0.231561  0.418918  0.331361  1
  Li  Li12  1  0.354441  0.517621  0.711802  1
  Li  Li13  1  0.644709  0.233751  0.403423  1
  Li  Li14  1  0.750970  0.188490  0.907435  1
  Li  Li15  1  0.508545  0.373868  0.608973  1
  Li  Li16  1  0.595235  0.745051  0.839776  1
  Li  Li17  1  0.153051  0.996634  0.334330  1
  Li  Li18  1  0.219675  0.105026  0.808545  1
  Li  Li19  1  0.105583  0.515854  0.386167  1
  Li  Li20  1  0.235031  0.605826  0.780982  1
  Li  Li21  1  0.616586  0.022572  0.445072  1
  Li  Li22  1  0.501741  0.091121  0.905883  1
  Li  Li23  1  0.671185  0.668437  0.496468  1
  Li  Li24  1  0.525899  0.615589  0.955078  1
  Li  Li25  1  0.010653  0.119569  0.453838  1
  Li  Li26  1  0.103142  0.099354  0.986988  1
  Li  Li27  1  0.019033  0.657189  0.363361  1
  Li  Li28  1  0.160550  0.756574  0.920771  1
  Li  Li29  1  0.601713  0.154299  0.269028  1
  Li  Li30  1  0.662731  0.085441  0.749625  1
  Li  Li31  1  0.498453  0.589994  0.411032  1
  Li  Li32  1  0.760915  0.766959  0.902134  1
  Li  Li33  1  0.238679  0.102929  0.300449  1
  Li  Li34  1  0.006144  0.093413  0.888038  1
  Li  Li35  1  0.238177  0.587175  0.323634  1
  Li  Li36  1  0.107131  0.844733  0.736889  1
  Li  Li37  1  0.745459  0.087925  0.337279  1
  Li  Li38  1  0.656682  0.153626  0.003917  1
  Li  Li39  1  0.771585  0.780442  0.394977  1
  Li  Li40  1  0.675038  0.668094  0.007772  1
  Li  Li41  1  0.242342  0.081089  0.162563  1
  Li  Li42  1  0.154049  0.219980  0.907293  1
  Li  Li43  1  0.114624  0.655408  0.263296  1
  Li  Li44  1  0.974624  0.657596  0.146481  1
  Li  Li45  1  0.515192  0.111324  0.393985  1
  Li  Li46  1  0.832616  0.918276  0.747968  1
  Li  Li47  1  0.749980  0.601440  0.331022  1
  Li  Li48  1  0.667695  0.579770  0.746355  1
  Li  Li49  1  0.160036  0.493567  0.836947  1
  Li  Li50  1  0.089439  0.614024  0.487076  1
  Li  Li51  1  0.231942  0.854420  0.026549  1
  Li  Li52  1  0.113480  0.935298  0.528426  1
  Li  Li53  1  0.653745  0.334805  0.989096  1
  Li  Li54  1  0.739296  0.346000  0.584945  1
  Li  Li55  1  0.610025  0.723316  0.303834  1
  Li  Li56  1  0.660388  0.921176  0.758811  1
  Li  Li57  1  0.217357  0.261180  0.108962  1
  Li  Li58  1  0.202613  0.266200  0.617879  1
  Li  Li59  1  0.155028  0.757540  0.093601  1
  Li  Li60  1  0.267647  0.892865  0.766564  1
  Li  Li61  1  0.792312  0.347457  0.964787  1
  Li  Li62  1  0.603842  0.293841  0.709047  1
  Li  Li63  1  0.599487  0.859859  0.234868  1
  Li  Li64  1  0.600486  0.756357  0.647667  1
  Li  Li65  1  0.971537  0.373284  0.974084  1
  Li  Li66  1  0.266447  0.361420  0.496061  1
  Li  Li67  1  0.016625  0.856224  0.134007  1
  Li  Li68  1  0.238770  0.841600  0.603091  1
  Li  Li69  1  0.600544  0.490812  0.900593  1
  Li  Li70  1  0.684558  0.410606  0.720706  1
  Li  Li71  1  0.698186  0.785809  0.118064  1
  Li  Li72  1  0.750555  0.838406  0.593140  1
  Li  Li73  1  0.017898  0.377144  0.200280  1
  Li  Li74  1  0.895312  0.395583  0.490030  1
  Li  Li75  1  0.139269  0.985329  0.156894  1
  Li  Li76  1  0.012196  0.861797  0.634161  1
  Li  Li77  1  0.494345  0.356040  0.147401  1
  Li  Li78  1  0.608687  0.483514  0.602164  1
  Li  Li79  1  0.651579  0.854458  0.011478  1
  Li  Li80  1  0.452785  0.860870  0.769890  1
  Li  Li81  1  0.254476  0.404195  0.174786  1
  Li  Li82  1  0.030720  0.465832  0.611802  1
  Li  Li83  1  0.095294  0.901303  0.019118  1
  Li  Li84  1  0.157607  0.977820  0.669503  1
  Li  Li85  1  0.726356  0.471093  0.147688  1
  Li  Li86  1  0.633839  0.350859  0.501767  1
  Li  Li87  1  0.601805  0.991294  0.111378  1
  Li  Li88  1  0.658408  0.829199  0.490461  1
  Li  Li89  1  0.460975  0.203254  0.132588  1
  Li  Li90  1  0.218833  0.385375  0.735852  1
  Li  Li91  1  0.111595  0.848185  0.238433  1
  Li  Li92  1  0.130665  0.781231  0.553547  1
  Li  Li93  1  0.642088  0.519990  0.277107  1
  Li  Li94  1  0.647995  0.245821  0.586095  1
  Li  Li95  1  0.727665  0.928350  0.166628  1
  Li  Li96  1  0.828295  0.088267  0.749400  1
  Li  Li97  1  0.652084  0.245379  0.102292  1
  Li  Li98  1  0.384691  0.141771  0.738746  1
  Li  Li99  1  0.462487  0.543102  0.125529  1
  Li  Li100  1  0.204825  0.498896  0.646722  1
  Li  Li101  1  0.900474  0.143610  0.250171  1
  Li  Li102  1  0.708171  0.140505  0.472543  1
  Li  Li103  1  0.895931  0.522692  0.091113  1
  Li  Li104  1  0.788030  0.537550  0.630163  1
  Li  Li105  1  0.355987  0.020218  0.226424  1
  Li  Li106  1  0.253126  0.095436  0.658414  1
  Li  Li107  1  0.384302  0.613330  0.011846  1
  Li  Li108  1  0.497650  0.637870  0.638250  1
  Li  Li109  1  0.758425  0.093256  0.169818  1
  Li  Li110  1  0.904861  0.001366  0.589320  1
  Li  Li111  1  0.860608  0.572500  0.227595  1
  Li  Li112  1  0.899997  0.735273  0.653782  1
  Li  Li113  1  0.413078  0.253251  0.347098  1
  Li  Li114  1  0.482031  0.127302  0.631392  1
  Li  Li115  1  0.394784  0.639953  0.240375  1
  Li  Li116  1  0.356712  0.730281  0.530596  1
  Li  Li117  1  0.988209  0.102460  0.118810  1
  Li  Li118  1  0.993031  0.141335  0.639987  1
  Li  Li119  1  0.842300  0.741356  0.108977  1
  Li  Li120  1  0.838721  0.598248  0.737067  1
  Li  Li121  1  0.242979  0.902446  0.168827  1
  Li  Li122  1  0.340684  0.003820  0.658217  1
  Li  Li123  1  0.230226  0.634414  0.974996  1
  Li  Li124  1  0.385624  0.355064  0.762563  1
  Li  Li125  1  0.897105  0.236423  0.149297  1
  Li  Li126  1  0.735338  0.996162  0.639392  1
  Li  Li127  1  0.838870  0.656627  0.011445  1
  Li  Li128  1  0.840903  0.656938  0.509868  1
  Li  Li129  1  0.267899  0.149636  0.009216  1
  Li  Li130  1  0.223401  0.135761  0.491346  1
  Li  Li131  1  0.463676  0.706599  0.124167  1
  Li  Li132  1  0.377308  0.533961  0.527380  1
  Li  Li133  1  0.762363  0.325477  0.096854  1
  Li  Li134  1  0.833516  0.226918  0.518957  1
  Li  Li135  1  0.084776  0.595572  0.007333  1
  Li  Li136  1  0.970443  0.606373  0.612333  1
  Li  Li137  1  0.381605  0.022624  0.030268  1
  Li  Li138  1  0.388912  0.094947  0.517185  1
  Li  Li139  1  0.289311  0.555668  0.149370  1
  Li  Li140  1  0.238694  0.674398  0.599326  1
  Li  Li141  1  0.878958  0.038411  0.049428  1
  Li  Li142  1  0.034448  0.368156  0.732329  1
  Li  Li143  1  0.159773  0.747927  0.408356  1
  Li  Li144  1  0.770472  0.701981  0.613478  1
  Li  Li145  1  0.603518  0.348470  0.257871  1
  Li  Li146  1  0.253380  0.336684  0.902997  1
  Li  Li147  1  0.292148  0.851109  0.460056  1
  Li  Li148  1  0.327809  0.757650  0.928443  1
  Li  Li149  1  0.770531  0.466157  0.357196  1
  Li  Li150  1  0.142951  0.334422  0.001074  1
  Li  Li151  1  0.888622  0.866418  0.258929  1
  Li  Li152  1  0.989936  0.905833  0.898763  1
  Li  Li153  1  0.355515  0.473616  0.279646  1
  Li  Li154  1  0.390391  0.255990  0.867199  1
  Li  Li155  1  0.386494  0.984930  0.394686  1
  Li  Li156  1  0.331367  0.004077  0.833220  1
  Li  Li157  1  0.899226  0.501571  0.396849  1
  Li  Li158  1  0.887365  0.250885  0.667217  1
  Li  Li159  1  0.884664  0.982231  0.393942  1
  Li  Li160  1  0.909513  0.750698  0.845950  1
  Li  Li161  1  0.267522  0.254161  0.398063  1
  Li  Li162  1  0.332812  0.314731  0.005340  1
  Li  Li163  1  0.483742  0.884481  0.402787  1
  Li  Li164  1  0.416225  0.664089  0.802054  1
  Li  Li165  1  0.980129  0.375094  0.358745  1
  Li  Li166  1  0.942770  0.256485  0.864330  1
  Li  Li167  1  0.845171  0.841369  0.488161  1
  Li  Li168  1  0.827390  0.847927  0.009896  1
  Li  Li169  1  0.489266  0.402075  0.409356  1
  Li  Li170  1  0.379984  0.447601  0.970496  1
  Li  Li171  1  0.269302  0.907864  0.326017  1
  Li  Li172  1  0.302896  0.715533  0.106174  1
  Li  Li173  1  0.760638  0.340747  0.419125  1
  Li  Li174  1  0.926231  0.508466  0.899791  1
  Li  Li175  1  0.763030  0.918823  0.331218  1
  Li  Li176  1  0.765998  0.993700  0.868680  1
  Li  Li177  1  0.341101  0.225706  0.582405  1
  Li  Li178  1  0.324911  0.473858  0.843520  1
  Li  Li179  1  0.400631  0.858190  0.261743  1
  Li  Li180  1  0.512254  0.880498  0.106173  1
  Li  Li181  1  0.840127  0.415285  0.259148  1
  Li  Li182  1  0.832116  0.173941  0.033039  1
  Li  Li183  1  0.984955  0.884275  0.395428  1
  Li  Li184  1  0.859570  0.018004  0.209529  1
  Li  Li185  1  0.150323  0.501378  0.178147  1
  Li  Li186  1  0.480658  0.384058  0.882593  1
  Li  Li187  1  0.392650  0.758879  0.366699  1
  Li  Li188  1  0.494212  0.906667  0.910035  1
  Li  Li189  1  0.883339  0.274159  0.355221  1
  Li  Li190  1  0.837240  0.421679  0.739768  1
  Li  Li191  1  0.905652  0.760633  0.351823  1
  Li  Li192  1  0.496368  0.908907  0.593057  1
  I  I193  1  0.365253  0.626005  0.628413  1
  I  I194  1  0.127314  0.623108  0.880987  1
  I  I195  1  0.627996  0.882963  0.622323  1
  I  I196  1  0.877938  0.379252  0.869606  1
  I  I197  1  0.361855  0.117926  0.123071  1
  I  I198  1  0.358304  0.373501  0.381467  1
  I  I199  1  0.625933  0.617501  0.377994  1
  I  I200  1  0.128042  0.372255  0.129277  1
  I  I201  1  0.127899  0.378381  0.631595  1
  I  I202  1  0.636170  0.619443  0.878689  1
  I  I203  1  0.861117  0.876068  0.878830  1
  I  I204  1  0.129419  0.126138  0.383469  1
  I  I205  1  0.630114  0.123855  0.877098  1
  I  I206  1  0.628801  0.376048  0.124931  1
  I  I207  1  0.859913  0.125803  0.619583  1
  I  I208  1  0.367553  0.877720  0.873742  1
  I  I209  1  0.001342  0.001937  0.001306  1
  I  I210  1  0.992544  0.990913  0.488879  1
  I  I211  1  0.998931  0.495511  0.010451  1
  I  I212  1  0.996975  0.509456  0.490940  1
  I  I213  1  0.507540  0.996438  0.006800  1
  I  I214  1  0.490633  0.998790  0.489956  1
  I  I215  1  0.501476  0.492879  0.998557  1
  I  I216  1  0.502677  0.492912  0.508567  1
  I  I217  1  0.986288  0.259552  0.259489  1
  I  I218  1  0.997038  0.239346  0.742465  1
  I  I219  1  0.003418  0.753662  0.253559  1
  I  I220  1  0.997548  0.759686  0.744649  1
  I  I221  1  0.506444  0.254962  0.247793  1
  I  I222  1  0.482026  0.249764  0.755023  1
  I  I223  1  0.491597  0.753535  0.250646  1
  I  I224  1  0.503791  0.740926  0.740980  1
  S  S225  1  0.239063  0.996800  0.246705  1
  S  S226  1  0.246988  0.006878  0.747911  1
  S  S227  1  0.247127  0.497452  0.245129  1
  S  S228  1  0.248759  0.494235  0.756710  1
  S  S229  1  0.752037  0.005316  0.252896  1
  S  S230  1  0.747301  0.001332  0.753053  1
  S  S231  1  0.758469  0.514410  0.250603  1
  S  S232  1  0.755949  0.504817  0.739888  1
  S  S233  1  0.231901  0.258225  0.992450  1
  S  S234  1  0.241745  0.248462  0.511182  1
  S  S235  1  0.241300  0.742679  0.007566  1
  S  S236  1  0.240074  0.752454  0.510154  1
  S  S237  1  0.734912  0.251433  0.010288  1
  S  S238  1  0.723212  0.260084  0.496453  1
  S  S239  1  0.753905  0.753969  0.017926  1
  S  S240  1  0.753596  0.756345  0.508170  1
  S  S241  1  0.432094  0.184041  0.442611  1
  S  S242  1  0.438815  0.185554  0.946626  1
  S  S243  1  0.438451  0.686276  0.451418  1
  S  S244  1  0.438773  0.691562  0.933285  1
  S  S245  1  0.921921  0.199434  0.440171  1
  S  S246  1  0.931227  0.172651  0.948474  1
  S  S247  1  0.938130  0.692408  0.443057  1
  S  S248  1  0.937778  0.692097  0.945746  1
  S  S249  1  0.185374  0.058865  0.060601  1
  S  S250  1  0.186257  0.042832  0.559091  1
  S  S251  1  0.194433  0.553391  0.061474  1
  S  S252  1  0.181732  0.571249  0.548967  1
  S  S253  1  0.686444  0.064421  0.075381  1
  S  S254  1  0.683252  0.048141  0.546261  1
  S  S255  1  0.692826  0.552012  0.061711  1
  S  S256  1  0.691783  0.559390  0.555415  1
  S  S257  1  0.302136  0.056938  0.444164  1
  S  S258  1  0.300263  0.053767  0.945073  1
  S  S259  1  0.301634  0.558346  0.435238  1
  S  S260  1  0.307028  0.544170  0.944189  1
  S  S261  1  0.806002  0.057532  0.441353  1
  S  S262  1  0.801820  0.070246  0.960149  1
  S  S263  1  0.801825  0.559303  0.435213  1
  S  S264  1  0.813033  0.554860  0.947248  1
  S  S265  1  0.054722  0.183198  0.061535  1
  S  S266  1  0.044849  0.194036  0.545912  1
  S  S267  1  0.052314  0.696770  0.063406  1
  S  S268  1  0.048087  0.691493  0.565815  1
  S  S269  1  0.556202  0.189796  0.058847  1
  S  S270  1  0.552389  0.183105  0.551898  1
  S  S271  1  0.555975  0.685817  0.046361  1
  S  S272  1  0.566124  0.689705  0.555401  1
  S  S273  1  0.121460  0.111717  0.873164  1
  S  S274  1  0.132992  0.631514  0.378427  1
  S  S275  1  0.633384  0.116241  0.374795  1
  S  S276  1  0.437034  0.446487  0.195789  1
  S  S277  1  0.440394  0.435725  0.689645  1
  S  S278  1  0.444191  0.944358  0.191775  1
  S  S279  1  0.436160  0.944120  0.690355  1
  S  S280  1  0.933427  0.462331  0.194550  1
  S  S281  1  0.946068  0.441876  0.690953  1
  S  S282  1  0.946854  0.939485  0.186220  1
  S  S283  1  0.936238  0.939770  0.686125  1
  S  S284  1  0.195756  0.302948  0.311936  1
  S  S285  1  0.183387  0.301220  0.813149  1
  S  S286  1  0.197389  0.808943  0.309691  1
  S  S287  1  0.191558  0.811903  0.814408  1
  S  S288  1  0.696537  0.308928  0.316473  1
  S  S289  1  0.680321  0.313577  0.803918  1
  S  S290  1  0.690188  0.814457  0.312240  1
  S  S291  1  0.691300  0.811443  0.812290  1
  S  S292  1  0.307333  0.299535  0.185005  1
  S  S293  1  0.296404  0.300837  0.694345  1
  S  S294  1  0.313681  0.806219  0.192965  1
  S  S295  1  0.306140  0.802171  0.697585  1
  S  S296  1  0.812266  0.309078  0.200406  1
  S  S297  1  0.793775  0.316863  0.688757  1
  S  S298  1  0.799838  0.817496  0.191414  1
  S  S299  1  0.805552  0.806564  0.692697  1
  S  S300  1  0.055382  0.448040  0.299058  1
  S  S301  1  0.049918  0.450897  0.814970  1
  S  S302  1  0.056056  0.932819  0.309239  1
  S  S303  1  0.053063  0.937605  0.801932  1
  S  S304  1  0.557345  0.441701  0.315025  1
  S  S305  1  0.558399  0.432857  0.805194  1
  S  S306  1  0.555972  0.938499  0.315386  1
  S  S307  1  0.548198  0.935158  0.805859  1
  S  S308  1  0.133928  0.871721  0.125276  1
  S  S309  1  0.127065  0.872892  0.625567  1
  S  S310  1  0.625515  0.367047  0.619774  1
  S  S311  1  0.627014  0.878548  0.124962  1
  S  S312  1  0.192092  0.183908  0.204232  1
  S  S313  1  0.185467  0.182238  0.703486  1
  S  S314  1  0.201055  0.690799  0.190743  1
  S  S315  1  0.188196  0.686293  0.706010  1
  S  S316  1  0.693519  0.192470  0.198700  1
  S  S317  1  0.679926  0.195470  0.692748  1
  S  S318  1  0.685182  0.698059  0.202107  1
  S  S319  1  0.688258  0.691903  0.697147  1
  S  S320  1  0.438161  0.055664  0.310257  1
  S  S321  1  0.437613  0.057586  0.809301  1
  S  S322  1  0.437831  0.552984  0.314743  1
  S  S323  1  0.433148  0.543679  0.807369  1
  S  S324  1  0.935861  0.046620  0.308139  1
  S  S325  1  0.935603  0.053764  0.802176  1
  S  S326  1  0.944769  0.573963  0.314159  1
  S  S327  1  0.938662  0.570209  0.800869  1
  S  S328  1  0.059774  0.059166  0.203803  1
  S  S329  1  0.056577  0.052747  0.687052  1
  S  S330  1  0.054714  0.573465  0.193842  1
  S  S331  1  0.055959  0.557957  0.686560  1
  S  S332  1  0.562280  0.057565  0.203886  1
  S  S333  1  0.557079  0.056074  0.693871  1
  S  S334  1  0.557958  0.556185  0.199170  1
  S  S335  1  0.558171  0.551185  0.694304  1
  S  S336  1  0.316265  0.191523  0.309606  1
  S  S337  1  0.304116  0.188223  0.817131  1
  S  S338  1  0.309382  0.689426  0.312234  1
  S  S339  1  0.301917  0.693184  0.823383  1
  S  S340  1  0.809056  0.191659  0.314585  1
  S  S341  1  0.804526  0.200042  0.802451  1
  S  S342  1  0.809967  0.701249  0.309781  1
  S  S343  1  0.803834  0.694104  0.813509  1
  S  S344  1  0.364620  0.117809  0.627533  1
  S  S345  1  0.379762  0.625604  0.125156  1
  S  S346  1  0.873530  0.121422  0.137193  1
  S  S347  1  0.864267  0.628392  0.125286  1
  S  S348  1  0.859867  0.631490  0.623714  1
  S  S349  1  0.182739  0.442351  0.443435  1
  S  S350  1  0.186242  0.434812  0.942913  1
  S  S351  1  0.196715  0.932567  0.437381  1
  S  S352  1  0.185515  0.935346  0.947495  1
  S  S353  1  0.687895  0.441797  0.436876  1
  S  S354  1  0.702602  0.436905  0.940049  1
  S  S355  1  0.696682  0.932244  0.432889  1
  S  S356  1  0.689949  0.952149  0.950701  1
  S  S357  1  0.438732  0.300475  0.060278  1
  S  S358  1  0.433031  0.301168  0.554999  1
  S  S359  1  0.439940  0.801808  0.052136  1
  S  S360  1  0.446650  0.805639  0.556608  1
  S  S361  1  0.932190  0.295603  0.054038  1
  S  S362  1  0.919040  0.305235  0.562836  1
  S  S363  1  0.934637  0.810132  0.062388  1
  S  S364  1  0.934599  0.808235  0.559974  1
  S  S365  1  0.036288  0.321464  0.448832  1
  S  S366  1  0.044327  0.288643  0.936312  1
  S  S367  1  0.058083  0.806260  0.451396  1
  S  S368  1  0.052037  0.812010  0.946795  1
  S  S369  1  0.546587  0.300105  0.435903  1
  S  S370  1  0.552059  0.306825  0.938907  1
  S  S371  1  0.559448  0.797378  0.433269  1
  S  S372  1  0.558962  0.807838  0.935821  1
  S  S373  1  0.304319  0.431905  0.062068  1
  S  S374  1  0.293217  0.456094  0.562977  1
  S  S375  1  0.300748  0.941986  0.064355  1
  S  S376  1  0.310447  0.932506  0.554665  1
  S  S377  1  0.808678  0.435266  0.062522  1
  S  S378  1  0.805896  0.444163  0.553780  1
  S  S379  1  0.803214  0.950718  0.071765  1
  S  S380  1  0.806621  0.939384  0.556540  1
  S  S381  1  0.365898  0.368704  0.883415  1
  S  S382  1  0.370980  0.872687  0.372341  1
  S  S383  1  0.864671  0.390180  0.374843  1
  S  S384  1  0.867023  0.867210  0.373987  1
  P  P385  1  0.241897  0.996210  0.003625  1
  P  P386  1  0.250353  0.990951  0.500654  1
  P  P387  1  0.245171  0.487966  0.003542  1
  P  P388  1  0.239700  0.506913  0.495130  1
  P  P389  1  0.742494  0.007347  0.013843  1
  P  P390  1  0.748277  0.994261  0.492748  1
  P  P391  1  0.753828  0.497842  0.004064  1
  P  P392  1  0.745459  0.499390  0.495681  1
  P  P393  1  0.255743  0.247733  0.251451  1
  P  P394  1  0.244264  0.243313  0.758512  1
  P  P395  1  0.255190  0.749518  0.251815  1
  P  P396  1  0.247725  0.749674  0.758391  1
  P  P397  1  0.751815  0.250150  0.256622  1
  P  P398  1  0.739907  0.254048  0.748035  1
  P  P399  1  0.748177  0.756631  0.252528  1
  P  P400  1  0.746952  0.751130  0.754017  1
  P  P401  1  0.001014  0.994809  0.251572  1
  P  P402  1  0.994630  0.997676  0.745137  1
  P  P403  1  0.997340  0.515348  0.251990  1
  P  P404  1  0.996331  0.506356  0.751175  1
  P  P405  1  0.500279  0.998245  0.256012  1
  P  P406  1  0.496441  0.000641  0.749227  1
  P  P407  1  0.499601  0.499119  0.255180  1
  P  P408  1  0.498240  0.491989  0.750246  1
  P  P409  1  0.991934  0.232274  0.002888  1
  P  P410  1  0.980417  0.256271  0.499366  1
  P  P411  1  0.992379  0.752125  0.002814  1
  P  P412  1  0.994126  0.749625  0.504499  1
  P  P413  1  0.497828  0.246024  0.999140  1
  P  P414  1  0.491652  0.243007  0.499934  1
  P  P415  1  0.499436  0.749780  0.992615  1
  P  P416  1  0.503565  0.747390  0.499552  1
  X0+  X417  1  0.500000  0.585366  0.414634  1
  X0+  X418  1  0.487805  0.646341  0.634146  1
  X0+  X419  1  0.487805  0.609756  0.597561  1
  X0+  X420  1  0.487805  0.646341  0.853659  1
  X0+  X421  1  0.390244  0.756098  0.841463  1
  X0+  X422  1  0.487805  0.853659  0.853659  1
  X0+  X423  1  0.487805  0.902439  0.902439  1
  X0+  X424  1  0.487805  0.853659  0.658537  1
  X0+  X425  1  0.585366  0.829268  0.756098  1
  X0+  X426  1  0.000000  0.341463  0.146341  1
  X0+  X427  1  0.000000  0.390244  0.097561  1
  X0+  X428  1  0.731707  0.121951  0.756098  1
  X0+  X429  1  0.756098  0.121951  0.731707  1
  X0+  X430  1  0.731707  0.878049  0.731707  1
  X0+  X431  1  0.756098  0.878049  0.756098  1
  X0+  X432  1  0.658537  0.000000  0.670732  1
  X0+  X433  1  0.634146  0.975610  0.731707  1
  X0+  X434  1  0.658537  0.000000  0.829268  1
  X0+  X435  1  0.756098  0.975610  0.853659  1
  X0+  X436  1  0.829268  0.000000  0.829268  1
  X0+  X437  1  0.756098  0.024390  0.634146  1
  X0+  X438  1  0.829268  0.000000  0.658537  1
  X0+  X439  1  0.853659  0.024390  0.731707  1
  X0+  X440  1  0.829268  0.487805  0.329268  1
  X0+  X441  1  0.000000  0.097561  0.597561  1
  X0+  X442  1  0.000000  0.146341  0.634146  1
  X0+  X443  1  0.487805  0.398374  0.398374  1
  X0+  X444  1  0.487805  0.341463  0.353659  1
  X0+  X445  1  0.000000  0.097561  0.402439  1
  X0+  X446  1  0.000000  0.146341  0.365854  1
  X0+  X447  1  0.585366  0.658537  0.256098  1
  X0+  X448  1  0.902439  0.841463  0.756098  1
  X0+  X449  1  0.000000  0.829268  0.853659  1
  X0+  X450  1  0.000000  0.902439  0.902439  1
  X0+  X451  1  0.597561  0.341463  0.243902  1
  X0+  X452  1  0.731707  0.390244  0.219512  1
  X0+  X453  1  0.756098  0.414634  0.170732  1
  X0+  X454  1  0.829268  0.512195  0.170732  1
  X0+  X455  1  0.487805  0.097561  0.097561  1
  X0+  X456  1  0.487805  0.146341  0.146341  1
  X0+  X457  1  0.000000  0.341463  0.853659  1
  X0+  X458  1  0.000000  0.414634  0.902439  1
  X0+  X459  1  0.902439  0.500000  0.902439  1
  X0+  X460  1  0.000000  0.597561  0.902439  1
  X0+  X461  1  0.000000  0.658537  0.853659  1
  X0+  X462  1  0.585366  0.158537  0.756098  1
  X0+  X463  1  0.731707  0.609756  0.280488  1
  X0+  X464  1  0.500000  0.097561  0.902439  1
  X0+  X465  1  0.536585  0.121951  0.975610  1
  X0+  X466  1  0.756098  0.341463  0.402439  1
  X0+  X467  1  0.886179  0.268293  0.357724  1
  X0+  X468  1  0.886179  0.357724  0.268293  1
  X0+  X469  1  0.975610  0.365854  0.365854  1
  X0+  X470  1  0.975610  0.390244  0.390244  1
  X0+  X471  1  0.890244  0.390244  0.487805  1
  X0+  X472  1  0.853659  0.341463  0.487805  1
  X0+  X473  1  0.512195  0.130081  0.373984  1
  X0+  X474  1  0.597561  0.146341  0.268293  1
  X0+  X475  1  0.975610  0.121951  0.121951  1
  X0+  X476  1  0.975610  0.146341  0.146341  1
  X0+  X477  1  0.890244  0.146341  0.243902  1
  X0+  X478  1  0.853659  0.097561  0.243902  1
  X0+  X479  1  0.756098  0.085366  0.170732  1
  X0+  X480  1  0.975610  0.890244  0.390244  1
  X0+  X481  1  0.975610  0.853659  0.365854  1
  X0+  X482  1  0.731707  0.634146  0.487805  1
  X0+  X483  1  0.756098  0.658537  0.414634  1
  X0+  X484  1  0.829268  0.731707  0.585366  1
  X0+  X485  1  0.902439  0.731707  0.634146  1
  X0+  X486  1  0.743902  0.829268  0.585366  1
  X0+  X487  1  0.707317  0.853659  0.512195  1
  X0+  X488  1  0.731707  0.853659  0.536585  1
  X0+  X489  1  0.878049  0.890244  0.487805  1
  X0+  X490  1  0.853659  0.853659  0.487805  1
  X0+  X491  1  0.878049  0.951220  0.463415  1
  X0+  X492  1  0.756098  0.914634  0.341463  1
  X0+  X493  1  0.837398  0.764228  0.414634  1
  X0+  X494  1  0.780488  0.780488  0.390244  1
  X0+  X495  1  0.756098  0.853659  0.414634  1
  X0+  X496  1  0.890244  0.000000  0.121951  1
  X0+  X497  1  0.853659  0.000000  0.170732  1
  X0+  X498  1  0.894309  0.845528  0.268293  1
  X0+  X499  1  0.878049  0.804878  0.292683  1
  X0+  X500  1  0.853659  0.951220  0.268293  1
  X0+  X501  1  0.853659  0.975610  0.292683  1
  X0+  X502  1  0.853659  0.000000  0.341463  1
  X0+  X503  1  0.658537  0.731707  0.585366  1
  X0+  X504  1  0.890244  0.609756  0.512195  1
  X0+  X505  1  0.890244  0.512195  0.609756  1
  X0+  X506  1  0.975610  0.609756  0.609756  1
  X0+  X507  1  0.975610  0.634146  0.634146  1
  X0+  X508  1  0.890244  0.634146  0.731707  1
  X0+  X509  1  0.853659  0.585366  0.731707  1
  X0+  X510  1  0.756098  0.585366  0.646341  1
  X0+  X511  1  0.890244  0.634146  0.243902  1
  X0+  X512  1  0.658537  0.670732  0.000000  1
  X0+  X513  1  0.634146  0.707317  0.975610  1
  X0+  X514  1  0.829268  0.658537  0.000000  1
  X0+  X515  1  0.878049  0.609756  0.024390  1
  X0+  X516  1  0.878049  0.536585  0.048780  1
  X0+  X517  1  0.658537  0.585366  0.743902  1
  X0+  X518  1  0.634146  0.536585  0.756098  1
  X0+  X519  1  0.609756  0.487805  0.597561  1
  X0+  X520  1  0.512195  0.365854  0.634146  1
  X0+  X521  1  0.512195  0.390244  0.609756  1
  X0+  X522  1  0.731707  0.829268  0.902439  1
  X0+  X523  1  0.756098  0.756098  0.902439  1
  X0+  X524  1  0.756098  0.658537  0.902439  1
  X0+  X525  1  0.731707  0.414634  0.829268  1
  X0+  X526  1  0.756098  0.487805  0.853659  1
  X0+  X527  1  0.756098  0.585366  0.829268  1
  X0+  X528  1  0.853659  0.463415  0.768293  1
  X0+  X529  1  0.829268  0.414634  0.756098  1
  X0+  X530  1  0.731707  0.414634  0.658537  1
  X0+  X531  1  0.731707  0.341463  0.585366  1
  X0+  X532  1  0.646341  0.341463  0.512195  1
  X0+  X533  1  0.597561  0.390244  0.512195  1
  X0+  X534  1  0.593496  0.357724  0.731707  1
  X0+  X535  1  0.634146  0.414634  0.731707  1
  X0+  X536  1  0.593496  0.268293  0.642276  1
  X0+  X537  1  0.634146  0.268293  0.585366  1
  X0+  X538  1  0.609756  0.292683  0.707317  1
  X0+  X539  1  0.975610  0.609756  0.109756  1
  X0+  X540  1  0.975610  0.634146  0.146341  1
  X0+  X541  1  0.512195  0.878049  0.109756  1
  X0+  X542  1  0.512195  0.853659  0.146341  1
  X0+  X543  1  0.731707  0.085366  0.341463  1
  X0+  X544  1  0.829268  0.170732  0.487805  1
  X0+  X545  1  0.853659  0.219512  0.512195  1
  X0+  X546  1  0.731707  0.146341  0.463415  1
  X0+  X547  1  0.731707  0.170732  0.414634  1
  X0+  X548  1  0.658537  0.219512  0.414634  1
  X0+  X549  1  0.597561  0.097561  0.487805  1
  X0+  X550  1  0.609756  0.048780  0.463415  1
  X0+  X551  1  0.609756  0.000000  0.390244  1
  X0+  X552  1  0.585366  0.000000  0.097561  1
  X0+  X553  1  0.609756  0.000000  0.121951  1
  X0+  X554  1  0.609756  0.975610  0.097561  1
  X0+  X555  1  0.597561  0.853659  0.243902  1
  X0+  X556  1  0.634146  0.902439  0.243902  1
  X0+  X557  1  0.634146  0.975610  0.219512  1
  X0+  X558  1  0.634146  0.024390  0.292683  1
  X0+  X559  1  0.731707  0.914634  0.170732  1
  X0+  X560  1  0.658537  0.841463  0.024390  1
  X0+  X561  1  0.609756  0.878049  0.024390  1
  X0+  X562  1  0.646341  0.756098  0.097561  1
  X0+  X563  1  0.597561  0.756098  0.146341  1
  X0+  X564  1  0.707317  0.780488  0.121951  1
  X0+  X565  1  0.731707  0.829268  0.097561  1
  X0+  X566  1  0.890244  0.731707  0.146341  1
  X0+  X567  1  0.829268  0.731707  0.097561  1
  X0+  X568  1  0.756098  0.658537  0.097561  1
  X0+  X569  1  0.829268  0.829268  0.012195  1
  X0+  X570  1  0.902439  0.902439  0.000000  1
  X0+  X571  1  0.731707  0.170732  0.585366  1
  X0+  X572  1  0.487805  0.341463  0.146341  1
  X0+  X573  1  0.512195  0.390244  0.097561  1
  X0+  X574  1  0.585366  0.500000  0.902439  1
  X0+  X575  1  0.609756  0.536585  0.975610  1
  X0+  X576  1  0.886179  0.097561  0.016260  1
  X0+  X577  1  0.829268  0.231707  0.097561  1
  X0+  X578  1  0.878049  0.243902  0.146341  1
  X0+  X579  1  0.829268  0.170732  0.024390  1
  X0+  X580  1  0.658537  0.243902  0.085366  1
  X0+  X581  1  0.707317  0.268293  0.121951  1
  X0+  X582  1  0.731707  0.365854  0.024390  1
  X0+  X583  1  0.756098  0.365854  0.000000  1
  X0+  X584  1  0.829268  0.341463  0.000000  1
  X0+  X585  1  0.658537  0.341463  0.000000  1
  X0+  X586  1  0.658537  0.170732  0.000000  1
  X0+  X587  1  0.731707  0.146341  0.975610  1
  X0+  X588  1  0.829268  0.243902  0.914634  1
  X0+  X589  1  0.658537  0.260163  0.918699  1
  X0+  X590  1  0.731707  0.243902  0.878049  1
  X0+  X591  1  0.585366  0.414634  0.000000  1
  X0+  X592  1  0.658537  0.756098  0.414634  1
  X0+  X593  1  0.585366  0.902439  0.512195  1
  X0+  X594  1  0.000000  0.130081  0.861789  1
  X0+  X595  1  0.487805  0.853659  0.365854  1
  X0+  X596  1  0.487805  0.878049  0.390244  1
  X0+  X597  1  0.390244  0.390244  -0.012195  1
  X0+  X598  1  0.390244  0.487805  0.890244  1
  X0+  X599  1  0.158537  0.414634  0.756098  1
  X0+  X600  1  0.219512  0.390244  0.731707  1
  X0+  X601  1  0.219512  0.524390  0.853659  1
  X0+  X602  1  0.170732  0.487805  0.829268  1
  X0+  X603  1  0.231707  0.487805  0.634146  1
  X0+  X604  1  0.170732  0.512195  0.658537  1
  X0+  X605  1  0.317073  0.487805  0.658537  1
  X0+  X606  1  0.170732  0.585366  0.743902  1
  X0+  X607  1  0.268293  0.609756  0.731707  1
  X0+  X608  1  0.317073  0.585366  0.756098  1
  X0+  X609  1  0.097561  0.658537  0.756098  1
  X0+  X610  1  0.390244  0.353659  0.756098  1
  X0+  X611  1  0.341463  0.414634  0.756098  1
  X0+  X612  1  0.256098  0.341463  0.902439  1
  X0+  X613  1  0.487805  0.365854  0.853659  1
  X0+  X614  1  0.487805  0.390244  0.878049  1
  X0+  X615  1  0.390244  0.256098  0.853659  1
  X0+  X616  1  0.341463  0.268293  0.902439  1
  X0+  X617  1  0.463415  0.292683  0.878049  1
  X0+  X618  1  0.158537  0.658537  0.000000  1
  X0+  X619  1  0.146341  0.707317  0.975610  1
  X0+  X620  1  0.219512  0.731707  0.902439  1
  X0+  X621  1  0.012195  0.878049  0.609756  1
  X0+  X622  1  0.243902  0.841463  0.585366  1
  X0+  X623  1  0.134146  0.780488  0.536585  1
  X0+  X624  1  0.146341  0.841463  0.512195  1
  X0+  X625  1  0.097561  0.902439  0.512195  1
  X0+  X626  1  0.121951  0.951220  0.536585  1
  X0+  X627  1  0.158537  0.975610  0.658537  1
  X0+  X628  1  0.097561  0.756098  0.646341  1
  X0+  X629  1  0.097561  0.841463  0.731707  1
  X0+  X630  1  0.146341  0.902439  0.731707  1
  X0+  X631  1  0.243902  0.219512  0.390244  1
  X0+  X632  1  0.317073  0.243902  0.414634  1
  X0+  X633  1  0.390244  0.243902  0.341463  1
  X0+  X634  1  0.170732  0.170732  0.512195  1
  X0+  X635  1  0.219512  0.146341  0.487805  1
  X0+  X636  1  0.158537  0.243902  0.585366  1
  X0+  X637  1  0.219512  0.268293  0.609756  1
  X0+  X638  1  0.268293  0.219512  0.609756  1
  X0+  X639  1  0.243902  0.341463  0.585366  1
  X0+  X640  1  0.097561  0.243902  0.658537  1
  X0+  X641  1  0.097561  0.414634  0.512195  1
  X0+  X642  1  0.170732  0.341463  0.487805  1
  X0+  X643  1  0.317073  0.341463  0.487805  1
  X0+  X644  1  0.243902  0.658537  0.585366  1
  X0+  X645  1  0.268293  0.634146  0.512195  1
  X0+  X646  1  0.097561  0.646341  0.268293  1
  X0+  X647  1  0.231707  0.658537  0.414634  1
  X0+  X648  1  0.097561  0.731707  0.353659  1
  X0+  X649  1  0.154472  0.731707  0.406504  1
  X0+  X650  1  0.000000  0.609756  0.390244  1
  X0+  X651  1  0.000000  0.634146  0.365854  1
  X0+  X652  1  0.024390  0.707317  0.365854  1
  X0+  X653  1  0.097561  0.597561  0.487805  1
  X0+  X654  1  0.146341  0.658537  0.487805  1
  X0+  X655  1  0.097561  0.512195  0.402439  1
  X0+  X656  1  0.146341  0.512195  0.341463  1
  X0+  X657  1  0.219512  0.585366  0.341463  1
  X0+  X658  1  0.390244  -0.012195  0.390244  1
  X0+  X659  1  0.390244  0.890244  0.487805  1
  X0+  X660  1  0.268293  0.902439  0.329268  1
  X0+  X661  1  0.329268  0.902439  0.268293  1
  X0+  X662  1  0.390244  0.853659  0.268293  1
  X0+  X663  1  0.268293  0.829268  0.414634  1
  X0+  X664  1  0.292683  0.853659  0.463415  1
  X0+  X665  1  0.357724  0.731707  0.520325  1
  X0+  X666  1  0.341463  0.756098  0.414634  1
  X0+  X667  1  0.390244  0.756098  0.365854  1
  X0+  X668  1  0.341463  0.170732  0.000000  1
  X0+  X669  1  0.365854  0.219512  0.024390  1
  X0+  X670  1  0.329268  0.829268  0.000000  1
  X0+  X671  1  0.158537  0.243902  0.073171  1
  X0+  X672  1  0.146341  0.268293  0.024390  1
  X0+  X673  1  0.243902  0.170732  0.073171  1
  X0+  X674  1  0.158537  0.000000  0.341463  1
  X0+  X675  1  0.219512  0.024390  0.365854  1
  X0+  X676  1  0.097561  0.000000  0.414634  1
  X0+  X677  1  0.341463  0.487805  0.341463  1
  X0+  X678  1  0.365854  0.463415  0.268293  1
  X0+  X679  1  0.390244  0.512195  0.109756  1
  X0+  X680  1  0.341463  0.512195  0.170732  1
  X0+  X681  1  0.487805  0.609756  0.109756  1
  X0+  X682  1  0.487805  0.634146  0.146341  1
  X0+  X683  1  0.463415  0.536585  0.121951  1
  X0+  X684  1  0.268293  0.585366  0.170732  1
  X0+  X685  1  0.146341  0.853659  0.012195  1
  X0+  X686  1  0.097561  0.878049  0.024390  1
  X0+  X687  1  0.012195  0.853659  0.146341  1
  X0+  X688  1  0.341463  0.658537  0.000000  1
  X0+  X689  1  0.390244  0.609756  0.024390  1
  X0+  X690  1  0.353659  0.024390  0.219512  1
  X0+  X691  1  0.341463  0.000000  0.170732  1
  X0+  X692  1  0.317073  0.073171  0.243902  1
  X0+  X693  1  0.365854  0.024390  0.024390  1
  X0+  X694  1  0.390244  0.000000  0.097561  1
  X0+  X695  1  0.097561  0.853659  0.243902  1
  X0+  X696  1  0.146341  0.902439  0.243902  1
  X0+  X697  1  0.219512  0.963415  0.146341  1
  X0+  X698  1  0.219512  0.902439  0.170732  1
  X0+  X699  1  0.170732  0.073171  0.243902  1
  X0+  X700  1  0.243902  0.073171  0.170732  1
  X0+  X701  1  0.402439  0.731707  0.146341  1
  X0+  X702  1  0.292683  0.707317  0.097561  1
  X0+  X703  1  0.341463  0.731707  0.097561  1
  X0+  X704  1  0.219512  0.780488  0.121951  1
  X0+  X705  1  0.243902  0.829268  0.097561  1
  X0+  X706  1  0.097561  0.756098  0.146341  1
  X0+  X707  1  0.146341  0.756098  0.097561  1
  X0+  X708  1  0.097561  0.975610  0.097561  1
  X0+  X709  1  0.243902  0.341463  0.073171  1
  X0+  X710  1  0.268293  0.317073  0.073171  1
  X0+  X711  1  0.146341  0.487805  0.219512  1
  X0+  X712  1  0.170732  0.487805  0.170732  1
  X0+  X713  1  0.256098  0.414634  0.170732  1
  X0+  X714  1  0.243902  0.390244  0.243902  1
  X0+  X715  1  0.268293  0.390244  0.268293  1
  X0+  X716  1  0.243902  0.414634  0.341463  1
  X0+  X717  1  0.256098  0.097561  0.658537  1
  X0+  X718  1  0.341463  0.097561  0.731707  1
  X0+  X719  1  0.390244  0.146341  0.731707  1
  X0+  X720  1  0.487805  0.109756  0.609756  1
  X0+  X721  1  0.390244  0.012195  0.609756  1
  X0+  X722  1  0.341463  0.000000  0.658537  1
  X0+  X723  1  0.341463  0.158537  0.512195  1
  X0+  X724  1  0.390244  0.097561  0.512195  1
  X0+  X725  1  0.097561  0.105691  -0.008130  1
  X0+  X726  1  0.146341  0.000000  0.841463  1
  X0+  X727  1  0.097561  0.000000  0.890244  1
  X0+  X728  1  0.097561  0.146341  0.756098  1
  X0+  X729  1  0.146341  0.097561  0.756098  1
  X0+  X730  1  0.097561  0.243902  0.853659  1
  X0+  X731  1  0.146341  0.243902  0.902439  1
  X0+  X732  1  0.219512  0.158537  0.902439  1
  X0+  X733  1  0.243902  0.097561  0.829268  1
  X0+  X734  1  0.329268  0.000000  0.829268  1
  X0+  X735  1  0.243902  0.902439  0.829268  1
  X0+  X736  1  0.317073  0.902439  0.731707  1
  X0+  X737  1  0.390244  0.243902  0.634146  1
  X0+  X738  1  0.365854  0.536585  0.512195  1
  X0+  X739  1  0.390244  0.634146  0.243902  1
  X0+  X740  1  0.000000  0.341463  0.658537  1
  X0+  X741  1  0.658537  0.512195  0.170732  1
  X0+  X742  1  0.121951  0.268293  0.219512  1
  X0+  X743  1  0.658537  0.487805  0.341463  1
  X0+  X744  1  0.121951  0.463415  0.024390  1
  X0+  X745  1  0.878049  0.219512  0.731707  1
