# generated using pymatgen
data_Na12Li12Mg6PSe4SI
_symmetry_space_group_name_H-M   'P 1'
_cell_length_a   10.14134979
_cell_length_b   10.14134979
_cell_length_c   10.14134979
_cell_angle_alpha   90.00000000
_cell_angle_beta   90.00000000
_cell_angle_gamma   90.00000000
_symmetry_Int_Tables_number   1
_chemical_formula_structural   Na12Li12Mg6PSe4SI
_chemical_formula_sum   'Na48 Li48 Mg24 P4 Se16 S4 I4'
_cell_volume   1043.00715480
_cell_formula_units_Z   4
loop_
 _symmetry_equiv_pos_site_id
 _symmetry_equiv_pos_as_xyz
  1  'x, y, z'
loop_
 _atom_site_type_symbol
 _atom_site_label
 _atom_site_symmetry_multiplicity
 _atom_site_fract_x
 _atom_site_fract_y
 _atom_site_fract_z
 _atom_site_occupancy
  S  S0  1  0.250000  0.250000  0.750000  1
  S  S1  1  0.750000  0.750000  0.750000  1
  S  S2  1  0.750000  0.250000  0.250000  1
  S  S3  1  0.250000  0.750000  0.250000  1
  I  I4  1  0.000000  0.000000  0.500000  1
  I  I5  1  0.500000  0.000000  0.000000  1
  I  I6  1  0.000000  0.500000  0.000000  1
  I  I7  1  0.500000  0.500000  0.500000  1
  P  P8  1  0.000000  0.000000  0.000000  1
  P  P9  1  0.000000  0.500000  0.500000  1
  P  P10  1  0.500000  0.000000  0.500000  1
  P  P11  1  0.500000  0.500000  0.000000  1
  Li  Li12  1  0.317000  0.000000  0.183000  1
  Li  Li13  1  0.683000  0.000000  0.183000  1
  Li  Li14  1  0.683000  0.000000  0.817000  1
  Li  Li15  1  0.317000  0.000000  0.817000  1
  Li  Li16  1  0.183000  0.317000  0.000000  1
  Li  Li17  1  0.183000  0.683000  0.000000  1
  Li  Li18  1  0.817000  0.683000  0.000000  1
  Li  Li19  1  0.817000  0.317000  0.000000  1
  Li  Li20  1  0.000000  0.183000  0.317000  1
  Li  Li21  1  0.000000  0.183000  0.683000  1
  Li  Li22  1  0.000000  0.817000  0.683000  1
  Li  Li23  1  0.000000  0.817000  0.317000  1
  Li  Li24  1  0.000000  0.317000  0.183000  1
  Li  Li25  1  0.000000  0.683000  0.183000  1
  Li  Li26  1  0.000000  0.683000  0.817000  1
  Li  Li27  1  -0.000000  0.317000  0.817000  1
  Li  Li28  1  0.317000  0.183000  0.000000  1
  Li  Li29  1  0.683000  0.183000  0.000000  1
  Li  Li30  1  0.683000  0.817000  0.000000  1
  Li  Li31  1  0.317000  0.817000  0.000000  1
  Li  Li32  1  0.183000  0.000000  0.317000  1
  Li  Li33  1  0.183000  0.000000  0.683000  1
  Li  Li34  1  0.817000  0.000000  0.683000  1
  Li  Li35  1  0.817000  0.000000  0.317000  1
  Li  Li36  1  0.317000  0.500000  0.683000  1
  Li  Li37  1  0.683000  0.500000  0.683000  1
  Li  Li38  1  0.683000  0.500000  0.317000  1
  Li  Li39  1  0.317000  0.500000  0.317000  1
  Li  Li40  1  0.183000  0.817000  0.500000  1
  Li  Li41  1  0.183000  0.183000  0.500000  1
  Li  Li42  1  0.817000  0.183000  0.500000  1
  Li  Li43  1  0.817000  0.817000  0.500000  1
  Li  Li44  1  0.317000  0.683000  0.500000  1
  Li  Li45  1  0.683000  0.683000  0.500000  1
  Li  Li46  1  0.683000  0.317000  0.500000  1
  Li  Li47  1  0.317000  0.317000  0.500000  1
  Li  Li48  1  0.183000  0.500000  0.817000  1
  Li  Li49  1  0.183000  0.500000  0.183000  1
  Li  Li50  1  0.817000  0.500000  0.183000  1
  Li  Li51  1  0.817000  0.500000  0.817000  1
  Li  Li52  1  0.500000  0.183000  0.817000  1
  Li  Li53  1  0.500000  0.183000  0.183000  1
  Li  Li54  1  0.500000  0.817000  0.183000  1
  Li  Li55  1  0.500000  0.817000  0.817000  1
  Li  Li56  1  0.500000  0.317000  0.683000  1
  Li  Li57  1  0.500000  0.683000  0.683000  1
  Li  Li58  1  0.500000  0.683000  0.317000  1
  Li  Li59  1  0.500000  0.317000  0.317000  1
  Mg  Mg60  1  0.250000  0.018400  0.250000  1
  Mg  Mg61  1  0.750000  0.981600  0.250000  1
  Mg  Mg62  1  0.750000  0.018400  0.750000  1
  Mg  Mg63  1  0.250000  0.981600  0.750000  1
  Mg  Mg64  1  0.250000  0.250000  0.018400  1
  Mg  Mg65  1  0.250000  0.750000  0.981600  1
  Mg  Mg66  1  0.750000  0.750000  0.018400  1
  Mg  Mg67  1  0.750000  0.250000  0.981600  1
  Mg  Mg68  1  0.018400  0.250000  0.250000  1
  Mg  Mg69  1  0.981600  0.250000  0.750000  1
  Mg  Mg70  1  0.018400  0.750000  0.750000  1
  Mg  Mg71  1  0.981600  0.750000  0.250000  1
  Mg  Mg72  1  0.250000  0.518400  0.750000  1
  Mg  Mg73  1  0.750000  0.481600  0.750000  1
  Mg  Mg74  1  0.750000  0.518400  0.250000  1
  Mg  Mg75  1  0.250000  0.481600  0.250000  1
  Mg  Mg76  1  0.250000  0.750000  0.518400  1
  Mg  Mg77  1  0.250000  0.250000  0.481600  1
  Mg  Mg78  1  0.750000  0.250000  0.518400  1
  Mg  Mg79  1  0.750000  0.750000  0.481600  1
  Mg  Mg80  1  0.518400  0.250000  0.750000  1
  Mg  Mg81  1  0.481600  0.250000  0.250000  1
  Mg  Mg82  1  0.518400  0.750000  0.250000  1
  Mg  Mg83  1  0.481600  0.750000  0.750000  1
  Na  Na84  1  0.567000  0.250000  0.433000  1
  Na  Na85  1  0.433000  0.750000  0.433000  1
  Na  Na86  1  0.433000  0.250000  0.567000  1
  Na  Na87  1  0.567000  0.750000  0.567000  1
  Na  Na88  1  0.433000  0.567000  0.250000  1
  Na  Na89  1  0.433000  0.433000  0.750000  1
  Na  Na90  1  0.567000  0.433000  0.250000  1
  Na  Na91  1  0.567000  0.567000  0.750000  1
  Na  Na92  1  0.250000  0.433000  0.567000  1
  Na  Na93  1  0.750000  0.433000  0.433000  1
  Na  Na94  1  0.250000  0.567000  0.433000  1
  Na  Na95  1  0.750000  0.567000  0.567000  1
  Na  Na96  1  0.567000  0.750000  0.933000  1
  Na  Na97  1  0.433000  0.250000  0.933000  1
  Na  Na98  1  0.433000  0.750000  0.067000  1
  Na  Na99  1  0.567000  0.250000  0.067000  1
  Na  Na100  1  0.433000  0.067000  0.750000  1
  Na  Na101  1  0.433000  0.933000  0.250000  1
  Na  Na102  1  0.567000  0.933000  0.750000  1
  Na  Na103  1  0.567000  0.067000  0.250000  1
  Na  Na104  1  0.250000  0.933000  0.067000  1
  Na  Na105  1  0.750000  0.933000  0.933000  1
  Na  Na106  1  0.250000  0.067000  0.933000  1
  Na  Na107  1  0.750000  0.067000  0.067000  1
  Na  Na108  1  0.067000  0.250000  0.933000  1
  Na  Na109  1  0.933000  0.750000  0.933000  1
  Na  Na110  1  0.933000  0.250000  0.067000  1
  Na  Na111  1  0.067000  0.750000  0.067000  1
  Na  Na112  1  0.933000  0.567000  0.750000  1
  Na  Na113  1  0.933000  0.433000  0.250000  1
  Na  Na114  1  0.067000  0.433000  0.750000  1
  Na  Na115  1  0.067000  0.567000  0.250000  1
  Na  Na116  1  0.750000  0.433000  0.067000  1
  Na  Na117  1  0.250000  0.433000  0.933000  1
  Na  Na118  1  0.750000  0.567000  0.933000  1
  Na  Na119  1  0.250000  0.567000  0.067000  1
  Na  Na120  1  0.067000  0.750000  0.433000  1
  Na  Na121  1  0.933000  0.250000  0.433000  1
  Na  Na122  1  0.933000  0.750000  0.567000  1
  Na  Na123  1  0.067000  0.250000  0.567000  1
  Na  Na124  1  0.933000  0.067000  0.250000  1
  Na  Na125  1  0.933000  0.933000  0.750000  1
  Na  Na126  1  0.067000  0.933000  0.250000  1
  Na  Na127  1  0.067000  0.067000  0.750000  1
  Na  Na128  1  0.750000  0.933000  0.567000  1
  Na  Na129  1  0.250000  0.933000  0.433000  1
  Na  Na130  1  0.750000  0.067000  0.433000  1
  Na  Na131  1  0.250000  0.067000  0.567000  1
  Se  Se132  1  0.383787  0.883787  0.116213  1
  Se  Se133  1  0.616213  0.116213  0.116213  1
  Se  Se134  1  0.616213  0.883787  0.883787  1
  Se  Se135  1  0.383787  0.116213  0.883787  1
  Se  Se136  1  0.116213  0.383787  0.883787  1
  Se  Se137  1  0.116213  0.616213  0.116213  1
  Se  Se138  1  0.883787  0.616213  0.883787  1
  Se  Se139  1  0.883787  0.383787  0.116213  1
  Se  Se140  1  0.883787  0.116213  0.383787  1
  Se  Se141  1  0.116213  0.116213  0.616213  1
  Se  Se142  1  0.883787  0.883787  0.616213  1
  Se  Se143  1  0.116213  0.883787  0.383787  1
  Se  Se144  1  0.383787  0.383787  0.616213  1
  Se  Se145  1  0.616213  0.616213  0.616213  1
  Se  Se146  1  0.616213  0.383787  0.383787  1
  Se  Se147  1  0.383787  0.616213  0.383787  1

