# generated using pymatgen
data_Na353Li384
_symmetry_space_group_name_H-M   'P 1'
_cell_length_a   20.43300000
_cell_length_b   20.43300000
_cell_length_c   20.43300000
_cell_angle_alpha   90.00000000
_cell_angle_beta   90.00000000
_cell_angle_gamma   90.00000000
_symmetry_Int_Tables_number   1
_chemical_formula_structural   Na353Li384
_chemical_formula_sum   'Na353 Li384'
_cell_volume   8530.93052274
_cell_formula_units_Z   1
loop_
 _symmetry_equiv_pos_site_id
 _symmetry_equiv_pos_as_xyz
  1  'x, y, z'
loop_
 _atom_site_type_symbol
 _atom_site_label
 _atom_site_symmetry_multiplicity
 _atom_site_fract_x
 _atom_site_fract_y
 _atom_site_fract_z
 _atom_site_occupancy
  Na  Na0  1  0.120207  0.449535  1.033719  1
  Na  Na1  1  1.116997  0.957510  1.044181  1
  Na  Na2  1  1.114673  0.949592  0.539738  1
  Na  Na3  1  0.621866  0.460551  1.046782  1
  Na  Na4  1  0.620978  0.457101  0.539474  1
  Na  Na5  1  0.620963  0.957746  1.042337  1
  Na  Na6  1  0.617654  0.963553  0.551217  1
  Na  Na7  1  0.458760  0.379858  0.457575  1
  Na  Na8  1  0.454777  0.386550  0.954325  1
  Na  Na9  1  0.455652  0.880965  0.456517  1
  Na  Na10  1  0.474129  0.888038  0.946880  1
  Na  Na11  1  0.953168  0.385471  0.456657  1
  Na  Na12  1  0.952678  0.385343  0.969041  1
  Na  Na13  1  0.957129  0.882894  0.457993  1
  Na  Na14  1  0.957143  0.882312  0.954942  1
  Na  Na15  1  0.380155  1.047530  1.043039  1
  Na  Na16  1  0.381115  1.039514  0.542362  1
  Na  Na17  1  0.381734  0.541509  1.045445  1
  Na  Na18  1  0.383774  0.529669  0.548235  1
  Na  Na19  1  0.883023  1.041262  1.046242  1
  Na  Na20  1  0.880084  1.042247  0.543543  1
  Na  Na21  1  0.879751  0.543653  1.045545  1
  Na  Na22  1  0.879558  0.547700  0.542607  1
  Na  Na23  1  1.044671  0.117240  0.458018  1
  Na  Na24  1  1.043006  1.116711  0.956156  1
  Na  Na25  1  1.036933  0.618745  0.451838  1
  Na  Na26  1  1.041834  0.620087  0.956144  1
  Na  Na27  1  0.536404  0.120453  0.452345  1
  Na  Na28  1  0.540733  1.119416  0.955194  1
  Na  Na29  1  0.544475  0.615384  0.457320  1
  Na  Na30  1  0.540116  0.616493  0.955804  1
  Na  Na31  1  1.120010  1.044367  0.461058  1
  Na  Na32  1  1.118991  1.040837  0.955974  1
  Na  Na33  1  1.118486  0.547783  0.466252  1
  Na  Na34  1  0.119489  0.545144  0.959036  1
  Na  Na35  1  0.614418  1.044478  0.458826  1
  Na  Na36  1  0.615585  1.035094  0.959379  1
  Na  Na37  1  0.620826  0.540872  0.457863  1
  Na  Na38  1  0.617497  0.543096  0.957468  1
  Na  Na39  1  1.042171  0.381790  1.042408  1
  Na  Na40  1  1.043142  0.382410  0.542359  1
  Na  Na41  1  1.044358  0.883755  1.048107  1
  Na  Na42  1  1.051111  0.884048  0.529452  1
  Na  Na43  1  0.546162  0.382303  1.037166  1
  Na  Na44  1  0.534853  0.382982  0.550775  1
  Na  Na45  1  0.536473  0.880268  0.544619  1
  Na  Na46  1  0.381646  0.458350  0.453407  1
  Na  Na47  1  0.377461  0.955869  0.458694  1
  Na  Na48  1  0.380010  0.960018  0.952728  1
  Na  Na49  1  0.879136  0.464416  0.448406  1
  Na  Na50  1  0.878769  0.461866  0.955943  1
  Na  Na51  1  0.880537  0.948410  0.461968  1
  Na  Na52  1  0.881243  0.956030  0.957654  1
  Na  Na53  1  0.459300  1.122605  1.044160  1
  Na  Na54  1  0.463326  0.122916  0.550081  1
  Na  Na55  1  0.458733  0.621667  1.044405  1
  Na  Na56  1  0.454960  0.616485  0.539753  1
  Na  Na57  1  0.954989  0.123684  0.540162  1
  Na  Na58  1  0.965499  0.619056  1.056625  1
  Na  Na59  1  0.955903  0.621215  0.543641  1
  Na  Na60  1  0.456997  1.041568  0.121312  1
  Na  Na61  1  0.459351  1.043736  0.621850  1
  Na  Na62  1  0.458377  0.542366  0.120754  1
  Na  Na63  1  0.459649  0.547115  0.619511  1
  Na  Na64  1  0.957271  1.047109  1.119607  1
  Na  Na65  1  0.958712  1.042880  0.615839  1
  Na  Na66  1  0.958644  0.544492  1.116854  1
  Na  Na67  1  0.961925  0.546722  0.619786  1
  Na  Na68  1  0.459359  0.456732  0.382392  1
  Na  Na69  1  0.453639  0.458569  0.881942  1
  Na  Na70  1  0.460501  0.953353  0.377226  1
  Na  Na71  1  0.454296  0.970033  0.879861  1
  Na  Na72  1  0.954515  0.456240  0.383253  1
  Na  Na73  1  0.954782  0.458188  0.881569  1
  Na  Na74  1  0.957051  0.955555  0.378755  1
  Na  Na75  1  0.956494  0.957047  0.881498  1
  Na  Na76  1  1.046394  1.043236  0.381728  1
  Na  Na77  1  1.038054  1.046481  0.881980  1
  Na  Na78  1  1.044426  0.546226  0.382934  1
  Na  Na79  1  1.058889  0.538922  0.880795  1
  Na  Na80  1  0.545082  1.046527  0.378169  1
  Na  Na81  1  0.543984  1.046827  0.884136  1
  Na  Na82  1  0.543929  0.543718  0.378149  1
  Na  Na83  1  0.556430  0.524228  0.882431  1
  Na  Na84  1  1.045964  0.460306  1.119562  1
  Na  Na85  1  1.040268  0.456295  0.617202  1
  Na  Na86  1  1.057482  0.976886  1.117423  1
  Na  Na87  1  1.058131  0.979274  0.617912  1
  Na  Na88  1  0.545765  0.465464  0.116221  1
  Na  Na89  1  0.541613  0.453279  0.618999  1
  Na  Na90  1  0.544340  0.962842  0.620655  1
  Na  Na91  1  1.116840  0.205260  0.293032  1
  Na  Na92  1  0.116857  0.203780  0.790347  1
  Na  Na93  1  1.125105  0.699061  0.289542  1
  Na  Na94  1  1.118500  0.705501  0.791868  1
  Na  Na95  1  0.623446  0.207564  0.294098  1
  Na  Na96  1  0.618296  0.199847  0.785088  1
  Na  Na97  1  0.615460  0.706818  0.295255  1
  Na  Na98  1  0.618976  0.708137  0.789836  1
  Na  Na99  1  0.450891  0.131923  0.210795  1
  Na  Na100  1  0.436752  0.137819  0.727736  1
  Na  Na101  1  0.452656  0.635354  0.208304  1
  Na  Na102  1  0.457791  0.631318  0.707146  1
  Na  Na103  1  0.960524  0.132432  0.706708  1
  Na  Na104  1  0.958598  0.632993  0.702695  1
  Na  Na105  1  0.381191  0.292407  0.292847  1
  Na  Na106  1  0.384545  0.795650  0.290660  1
  Na  Na107  1  0.380897  0.792157  0.792658  1
  Na  Na108  1  0.878849  0.304313  0.282418  1
  Na  Na109  1  0.882376  0.296475  0.790275  1
  Na  Na110  1  0.883960  0.796772  0.287335  1
  Na  Na111  1  0.881375  0.792515  0.793935  1
  Na  Na112  1  1.043189  0.369786  0.205776  1
  Na  Na113  1  1.045629  0.367076  0.708808  1
  Na  Na114  1  1.044658  0.871284  0.210744  1
  Na  Na115  1  0.536444  0.361065  0.197118  1
  Na  Na116  1  0.552036  0.373497  0.714781  1
  Na  Na117  1  0.546793  0.864520  0.712912  1
  Na  Na118  1  1.114374  0.300400  0.213205  1
  Na  Na119  1  1.119039  0.791040  0.205802  1
  Na  Na120  1  1.121959  0.795904  0.711741  1
  Na  Na121  1  0.617649  0.290536  0.208464  1
  Na  Na122  1  0.620532  0.291436  0.705274  1
  Na  Na123  1  0.617823  0.793590  0.205579  1
  Na  Na124  1  0.620639  0.795783  0.712177  1
  Na  Na125  1  1.043010  0.128959  0.293234  1
  Na  Na126  1  1.044553  0.132007  0.790560  1
  Na  Na127  1  1.047515  0.630491  0.291002  1
  Na  Na128  1  1.042540  0.632629  0.794348  1
  Na  Na129  1  0.549948  0.132252  0.282638  1
  Na  Na130  1  0.542816  0.134155  0.793296  1
  Na  Na131  1  0.548040  0.631323  0.289991  1
  Na  Na132  1  0.547824  0.631753  0.788131  1
  Na  Na133  1  0.382525  0.205790  0.209206  1
  Na  Na134  1  0.379928  0.202068  0.720791  1
  Na  Na135  1  0.380538  0.710554  0.204240  1
  Na  Na136  1  0.382859  0.720588  0.701536  1
  Na  Na137  1  0.878364  0.207877  0.206159  1
  Na  Na138  1  0.880018  0.205960  0.707027  1
  Na  Na139  1  0.880260  0.710977  0.205343  1
  Na  Na140  1  0.885311  0.694884  0.718497  1
  Na  Na141  1  0.455643  0.370023  0.293071  1
  Na  Na142  1  0.460174  0.373584  0.793953  1
  Na  Na143  1  0.456063  0.868381  0.292082  1
  Na  Na144  1  0.444845  0.873657  0.784135  1
  Na  Na145  1  0.958915  0.372779  0.293433  1
  Na  Na146  1  0.959347  0.869634  0.293478  1
  Na  Na147  1  0.955713  0.869352  0.790650  1
  Na  Na148  1  0.452089  0.286485  0.370523  1
  Na  Na149  1  0.459566  0.296708  0.870490  1
  Na  Na150  1  0.451808  0.789166  0.372214  1
  Na  Na151  1  0.475284  0.798157  0.865318  1
  Na  Na152  1  0.958327  0.292675  0.370081  1
  Na  Na153  1  0.955799  0.289982  0.868880  1
  Na  Na154  1  0.954451  0.790675  0.370129  1
  Na  Na155  1  0.957322  0.796402  0.869407  1
  Na  Na156  1  0.457336  0.207307  0.132513  1
  Na  Na157  1  0.458038  0.206984  0.632099  1
  Na  Na158  1  0.455516  0.706062  0.130572  1
  Na  Na159  1  0.453391  0.708975  0.631485  1
  Na  Na160  1  0.953108  0.214422  0.133149  1
  Na  Na161  1  0.959894  0.209217  0.629888  1
  Na  Na162  1  0.955767  0.710909  0.130507  1
  Na  Na163  1  0.952496  0.707585  0.636117  1
  Na  Na164  1  1.041837  0.295615  0.131130  1
  Na  Na165  1  1.044306  0.292312  0.631500  1
  Na  Na166  1  1.048427  0.780471  0.632151  1
  Na  Na167  1  0.537008  0.300711  0.131679  1
  Na  Na168  1  0.545500  0.288792  0.630230  1
  Na  Na169  1  0.539798  0.801030  0.632481  1
  Na  Na170  1  1.043279  0.205932  0.366051  1
  Na  Na171  1  1.042790  0.210137  0.869589  1
  Na  Na172  1  1.044583  0.709726  0.370011  1
  Na  Na173  1  1.030166  0.691648  0.855012  1
  Na  Na174  1  0.547900  0.209296  0.366128  1
  Na  Na175  1  0.544156  0.207648  0.864608  1
  Na  Na176  1  0.545947  0.708252  0.371525  1
  Na  Na177  1  0.369942  0.456840  0.291447  1
  Na  Na178  1  0.368458  0.955996  0.292742  1
  Na  Na179  1  0.364520  0.953501  0.792189  1
  Na  Na180  1  0.871921  0.455261  0.791841  1
  Na  Na181  1  0.866439  0.956189  0.297318  1
  Na  Na182  1  0.870582  0.956614  0.793645  1
  Na  Na183  1  0.207323  0.381060  0.205292  1
  Na  Na184  1  0.210364  0.378668  0.702427  1
  Na  Na185  1  0.214941  0.880139  0.204561  1
  Na  Na186  1  0.200970  0.876231  0.710336  1
  Na  Na187  1  0.697830  0.387494  0.217334  1
  Na  Na188  1  0.716302  0.381635  0.696790  1
  Na  Na189  1  0.720564  0.885353  0.194676  1
  Na  Na190  1  0.708409  0.880341  0.701006  1
  Na  Na191  1  0.131515  1.041239  0.293245  1
  Na  Na192  1  0.134599  1.039458  0.792961  1
  Na  Na193  1  0.132273  0.536280  0.794513  1
  Na  Na194  1  0.634396  1.043703  0.294685  1
  Na  Na195  1  0.627805  1.038793  0.797044  1
  Na  Na196  1  0.632651  0.543381  0.292604  1
  Na  Na197  1  0.627895  0.541958  0.794506  1
  Na  Na198  1  0.289894  0.119650  0.202748  1
  Na  Na199  1  0.293853  1.120596  0.702620  1
  Na  Na200  1  0.291268  0.613195  0.203159  1
  Na  Na201  1  0.294528  0.617987  0.706082  1
  Na  Na202  1  0.794579  0.114013  0.705643  1
  Na  Na203  1  0.796293  0.617272  0.709964  1
  Na  Na204  1  0.366793  1.040999  0.202687  1
  Na  Na205  1  0.368943  1.034129  0.702229  1
  Na  Na206  1  0.370227  0.544992  0.208228  1
  Na  Na207  1  0.374852  0.554568  0.712297  1
  Na  Na208  1  0.870316  1.043634  0.207396  1
  Na  Na209  1  0.870352  1.041314  0.707924  1
  Na  Na210  1  0.868873  0.545062  0.205306  1
  Na  Na211  1  0.870535  0.535037  0.703293  1
  Na  Na212  1  0.292871  0.383750  0.295195  1
  Na  Na213  1  0.291983  0.380079  0.789042  1
  Na  Na214  1  0.293569  0.882585  0.291210  1
  Na  Na215  1  0.284471  0.877780  0.816733  1
  Na  Na216  1  0.792164  0.377547  0.292620  1
  Na  Na217  1  0.800780  0.375239  0.784659  1
  Na  Na218  1  0.792377  0.880830  0.293792  1
  Na  Na219  1  0.789033  0.881363  0.794532  1
  Na  Na220  1  0.121859  0.465493  0.198670  1
  Na  Na221  1  0.131076  0.956084  0.206441  1
  Na  Na222  1  0.128193  0.960059  0.704683  1
  Na  Na223  1  0.630580  0.458002  0.199649  1
  Na  Na224  1  0.635894  0.463265  0.699321  1
  Na  Na225  1  0.629229  0.955931  0.209063  1
  Na  Na226  1  0.629738  0.958859  0.701767  1
  Na  Na227  1  0.207085  0.120741  0.291978  1
  Na  Na228  1  0.210165  1.118738  0.793331  1
  Na  Na229  1  0.209837  0.617700  0.298455  1
  Na  Na230  1  0.205802  0.616972  0.792387  1
  Na  Na231  1  0.713904  0.118235  0.302268  1
  Na  Na232  1  0.704067  0.118399  0.791786  1
  Na  Na233  1  0.711526  0.617527  0.295854  1
  Na  Na234  1  0.710110  0.619844  0.797104  1
  Na  Na235  1  0.207082  1.043345  0.372322  1
  Na  Na236  1  0.197799  1.038402  0.868119  1
  Na  Na237  1  0.201432  0.540501  0.367613  1
  Na  Na238  1  0.212358  0.552334  0.868585  1
  Na  Na239  1  0.715453  1.046814  0.367578  1
  Na  Na240  1  0.706761  1.043600  0.873467  1
  Na  Na241  1  0.697691  0.535586  0.369364  1
  Na  Na242  1  0.717728  0.560350  0.877376  1
  Na  Na243  1  0.209785  0.454341  0.132268  1
  Na  Na244  1  0.218078  0.448110  0.626745  1
  Na  Na245  1  0.214569  0.948134  0.129580  1
  Na  Na246  1  0.220967  0.952905  0.632970  1
  Na  Na247  1  0.712302  0.451138  0.131282  1
  Na  Na248  1  0.705527  0.459461  0.630631  1
  Na  Na249  1  0.711269  0.953964  0.629555  1
  Na  Na250  1  0.294638  1.041383  0.132592  1
  Na  Na251  1  0.294949  1.041836  0.633535  1
  Na  Na252  1  0.293658  0.541141  0.130735  1
  Na  Na253  1  0.292964  0.539016  0.630299  1
  Na  Na254  1  0.796127  1.043779  0.126910  1
  Na  Na255  1  0.793776  1.045023  0.633160  1
  Na  Na256  1  0.794387  0.543781  0.130618  1
  Na  Na257  1  0.793313  0.539641  0.627247  1
  Na  Na258  1  0.294283  0.454711  0.371125  1
  Na  Na259  1  0.291698  0.452563  0.871548  1
  Na  Na260  1  0.297691  0.960231  0.374074  1
  Na  Na261  1  0.289754  0.956894  0.873573  1
  Na  Na262  1  0.793814  0.456222  0.367359  1
  Na  Na263  1  0.797117  0.458045  0.868192  1
  Na  Na264  1  0.794576  0.959075  0.369172  1
  Na  Na265  1  0.792253  0.959260  0.869730  1
  Na  Na266  1  0.372274  0.213247  1.048910  1
  Na  Na267  1  0.364529  0.217412  0.561263  1
  Na  Na268  1  0.366408  0.706810  1.041512  1
  Na  Na269  1  0.372113  0.698676  0.535658  1
  Na  Na270  1  0.867749  0.204414  1.040840  1
  Na  Na271  1  0.864456  0.205649  0.545876  1
  Na  Na272  1  0.866967  0.704622  1.038723  1
  Na  Na273  1  0.863004  0.715131  0.556719  1
  Na  Na274  1  0.209547  0.133087  0.455654  1
  Na  Na275  1  0.205448  0.130773  0.959127  1
  Na  Na276  1  0.202785  0.630316  0.461191  1
  Na  Na277  1  0.209589  0.630462  0.955396  1
  Na  Na278  1  0.695734  0.130628  0.465231  1
  Na  Na279  1  0.706979  0.129247  0.957451  1
  Na  Na280  1  0.704792  0.629707  0.458937  1
  Na  Na281  1  0.708518  0.626666  0.960894  1
  Na  Na282  1  0.134841  0.291841  1.047330  1
  Na  Na283  1  0.130890  0.795376  1.040719  1
  Na  Na284  1  0.135632  0.786282  0.549068  1
  Na  Na285  1  0.629363  0.291044  1.042434  1
  Na  Na286  1  0.629062  0.293021  0.542122  1
  Na  Na287  1  0.633749  0.792384  1.043709  1
  Na  Na288  1  0.631800  0.799993  0.537306  1
  Na  Na289  1  0.292986  0.368089  0.455940  1
  Na  Na290  1  0.296165  0.367432  0.956930  1
  Na  Na291  1  0.290982  0.868570  0.454750  1
  Na  Na292  1  0.791099  0.368255  0.454620  1
  Na  Na293  1  0.779545  0.365800  0.947483  1
  Na  Na294  1  0.793669  0.868839  0.456210  1
  Na  Na295  1  0.795335  0.869562  0.957386  1
  Na  Na296  1  0.366668  0.298037  0.460766  1
  Na  Na297  1  0.367578  0.790455  0.454032  1
  Na  Na298  1  0.368669  0.790815  0.961952  1
  Na  Na299  1  0.862480  0.288656  0.460758  1
  Na  Na300  1  0.868959  0.295979  0.957561  1
  Na  Na301  1  0.871332  0.785079  0.452571  1
  Na  Na302  1  0.866402  0.793733  0.955206  1
  Na  Na303  1  0.295310  0.134088  1.035769  1
  Na  Na304  1  0.292746  0.130259  0.535337  1
  Na  Na305  1  0.294521  0.626582  1.038974  1
  Na  Na306  1  0.281918  0.625072  0.552538  1
  Na  Na307  1  0.794568  0.131232  0.540906  1
  Na  Na308  1  0.810954  0.640397  1.026456  1
  Na  Na309  1  0.790204  0.629771  0.543351  1
  Na  Na310  1  0.130620  0.210153  0.454175  1
  Na  Na311  1  0.133247  0.202738  0.961394  1
  Na  Na312  1  0.132218  0.715988  0.453797  1
  Na  Na313  1  0.130954  0.706495  0.954032  1
  Na  Na314  1  0.627419  0.208802  0.456252  1
  Na  Na315  1  0.634194  0.204072  0.956703  1
  Na  Na316  1  0.633111  0.703020  0.460366  1
  Na  Na317  1  0.632968  0.707854  0.953428  1
  Na  Na318  1  0.206443  0.368062  1.041166  1
  Na  Na319  1  0.206493  0.368572  0.542107  1
  Na  Na320  1  0.210867  0.867375  1.047249  1
  Na  Na321  1  0.215761  0.871079  0.550689  1
  Na  Na322  1  0.711201  0.377147  1.047101  1
  Na  Na323  1  0.700750  0.367874  0.536726  1
  Na  Na324  1  0.688970  0.875008  1.033471  1
  Na  Na325  1  0.701174  0.872505  0.537228  1
  Na  Na326  1  0.205152  0.292087  0.118617  1
  Na  Na327  1  0.201214  0.793226  0.622170  1
  Na  Na328  1  0.696163  0.288778  0.122760  1
  Na  Na329  1  0.707812  0.292140  0.618229  1
  Na  Na330  1  0.699302  0.788354  0.614785  1
  Na  Na331  1  0.208591  0.207491  0.382204  1
  Na  Na332  1  0.211692  0.203603  0.879807  1
  Na  Na333  1  0.213793  0.703475  0.380971  1
  Na  Na334  1  0.207351  0.708653  0.883303  1
  Na  Na335  1  0.701403  0.211980  0.379150  1
  Na  Na336  1  0.710229  0.204347  0.878476  1
  Na  Na337  1  0.716526  0.702030  0.384351  1
  Na  Na338  1  0.290599  0.295956  0.386214  1
  Na  Na339  1  0.298348  0.288950  0.881440  1
  Na  Na340  1  0.282141  0.801880  0.390626  1
  Na  Na341  1  0.794006  0.289439  0.378642  1
  Na  Na342  1  0.791512  0.294825  0.880530  1
  Na  Na343  1  0.789623  0.798260  0.384548  1
  Na  Na344  1  0.794681  0.792281  0.881945  1
  Na  Na345  1  0.293349  0.204493  0.119187  1
  Na  Na346  1  0.292593  0.204620  0.616475  1
  Na  Na347  1  0.290844  0.703940  0.116365  1
  Na  Na348  1  0.289287  0.702237  0.618678  1
  Na  Na349  1  0.787693  0.205697  0.118214  1
  Na  Na350  1  0.797507  0.208031  0.619850  1
  Na  Na351  1  0.793225  0.705343  1.119717  1
  Na  Na352  1  0.790191  0.701913  0.617556  1
  Li  Li353  1  0.987360  1.106872  1.106827  1
  Li  Li354  1  0.987724  0.107307  0.607329  1
  Li  Li355  1  0.987522  0.606362  1.107283  1
  Li  Li356  1  0.987674  0.606397  0.607087  1
  Li  Li357  1  0.487316  1.107276  0.106946  1
  Li  Li358  1  0.487736  0.106358  0.607022  1
  Li  Li359  1  0.487668  0.606960  0.107427  1
  Li  Li360  1  0.487441  0.606244  0.607204  1
  Li  Li361  1  1.106660  1.012663  0.393464  1
  Li  Li362  1  1.106916  1.012474  0.892803  1
  Li  Li363  1  1.106112  0.512464  0.392933  1
  Li  Li364  1  0.107995  0.512132  0.892040  1
  Li  Li365  1  0.606918  1.012123  0.393317  1
  Li  Li366  1  0.607304  1.012166  0.893176  1
  Li  Li367  1  0.606326  0.512588  0.393335  1
  Li  Li368  1  0.608680  0.512357  0.892762  1
  Li  Li369  1  1.012131  0.392814  1.107179  1
  Li  Li370  1  1.012685  0.393703  0.606132  1
  Li  Li371  1  1.012395  0.892729  1.106720  1
  Li  Li372  1  1.012639  0.893863  0.607397  1
  Li  Li373  1  0.512443  0.391948  0.106778  1
  Li  Li374  1  0.512534  0.394373  0.605202  1
  Li  Li375  1  0.511911  0.892042  0.107143  1
  Li  Li376  1  0.512662  0.893232  0.605741  1
  Li  Li377  1  0.392718  0.987476  0.392520  1
  Li  Li378  1  0.392473  0.987915  0.893210  1
  Li  Li379  1  0.394092  0.487365  0.394277  1
  Li  Li380  1  0.392392  0.487378  0.892444  1
  Li  Li381  1  0.892810  0.987239  0.393116  1
  Li  Li382  1  0.893183  0.987667  0.893161  1
  Li  Li383  1  0.893677  0.487916  0.393559  1
  Li  Li384  1  0.893122  0.487221  0.893379  1
  Li  Li385  1  0.987555  0.393822  0.393316  1
  Li  Li386  1  0.987354  0.393812  0.893622  1
  Li  Li387  1  0.987188  0.893772  0.393842  1
  Li  Li388  1  0.987442  0.894135  0.892995  1
  Li  Li389  1  0.487649  0.393730  0.392987  1
  Li  Li390  1  0.487179  0.393526  0.894004  1
  Li  Li391  1  0.487527  0.892410  0.393277  1
  Li  Li392  1  0.487616  0.893786  0.893825  1
  Li  Li393  1  0.392738  1.012786  0.106435  1
  Li  Li394  1  0.393233  1.012484  0.605718  1
  Li  Li395  1  0.394371  0.512349  0.104911  1
  Li  Li396  1  0.393039  0.512439  0.606233  1
  Li  Li397  1  0.893922  1.012679  1.105376  1
  Li  Li398  1  0.893975  1.012623  0.605939  1
  Li  Li399  1  0.894950  0.513167  1.105824  1
  Li  Li400  1  0.892161  0.512286  0.606612  1
  Li  Li401  1  1.012220  0.107336  0.392421  1
  Li  Li402  1  1.012365  1.106648  0.893752  1
  Li  Li403  1  1.012906  0.606208  0.393822  1
  Li  Li404  1  1.012489  0.606485  0.893374  1
  Li  Li405  1  0.512585  0.106059  0.394537  1
  Li  Li406  1  0.512439  1.106445  0.893844  1
  Li  Li407  1  0.512347  0.606887  0.392519  1
  Li  Li408  1  0.512691  0.607011  0.893117  1
  Li  Li409  1  1.106593  0.987223  1.106991  1
  Li  Li410  1  1.105699  0.987010  0.605558  1
  Li  Li411  1  0.106500  0.487751  1.106454  1
  Li  Li412  1  1.106842  0.487343  0.607077  1
  Li  Li413  1  0.606508  0.987311  0.106058  1
  Li  Li414  1  0.605792  0.987290  0.606423  1
  Li  Li415  1  0.606118  0.487755  0.106390  1
  Li  Li416  1  0.606628  0.486985  0.606780  1
  Li  Li417  1  1.106814  1.107029  0.987283  1
  Li  Li418  1  1.106409  0.105562  0.487341  1
  Li  Li419  1  0.105002  0.606051  0.987219  1
  Li  Li420  1  1.107631  0.606492  0.487658  1
  Li  Li421  1  0.606951  1.107033  0.987614  1
  Li  Li422  1  0.607403  0.106634  0.487757  1
  Li  Li423  1  0.606713  0.606847  0.987773  1
  Li  Li424  1  0.606336  0.607241  0.487721  1
  Li  Li425  1  0.106832  0.393348  1.012441  1
  Li  Li426  1  1.106543  0.393607  0.512421  1
  Li  Li427  1  1.106675  0.893860  1.012605  1
  Li  Li428  1  1.106204  0.894068  0.512629  1
  Li  Li429  1  0.606258  0.393966  1.012826  1
  Li  Li430  1  0.607555  0.392939  0.512679  1
  Li  Li431  1  0.606187  0.894357  1.012685  1
  Li  Li432  1  0.606163  0.894114  0.512638  1
  Li  Li433  1  0.392349  0.392327  0.987658  1
  Li  Li434  1  0.391821  0.391398  0.487847  1
  Li  Li435  1  0.393000  0.892493  0.987701  1
  Li  Li436  1  0.394555  0.894037  0.487034  1
  Li  Li437  1  0.892729  0.393618  0.987025  1
  Li  Li438  1  0.892819  0.393295  0.487478  1
  Li  Li439  1  0.893508  0.893307  0.987542  1
  Li  Li440  1  0.893479  0.892398  0.487721  1
  Li  Li441  1  0.393227  1.107319  1.012487  1
  Li  Li442  1  0.392046  0.107382  0.512428  1
  Li  Li443  1  0.392289  0.607486  1.012351  1
  Li  Li444  1  0.393142  0.606823  0.512746  1
  Li  Li445  1  0.893130  1.106540  1.012842  1
  Li  Li446  1  0.894109  0.106750  0.512558  1
  Li  Li447  1  0.893739  0.607079  1.012345  1
  Li  Li448  1  0.893377  0.606058  0.512604  1
  Li  Li449  1  0.987106  0.356593  0.356494  1
  Li  Li450  1  0.987274  0.357408  0.856390  1
  Li  Li451  1  0.987601  0.856490  0.357251  1
  Li  Li452  1  0.987308  0.855539  0.856018  1
  Li  Li453  1  0.487285  0.356384  0.356333  1
  Li  Li454  1  0.487472  0.357055  0.857352  1
  Li  Li455  1  0.487729  0.856759  0.356858  1
  Li  Li456  1  0.487016  0.856717  0.856057  1
  Li  Li457  1  1.107166  0.262553  0.143031  1
  Li  Li458  1  0.107872  0.262167  0.641790  1
  Li  Li459  1  1.106752  0.762721  0.143255  1
  Li  Li460  1  1.106402  0.762714  0.643809  1
  Li  Li461  1  0.607427  0.262506  0.143393  1
  Li  Li462  1  0.605919  0.262087  0.642120  1
  Li  Li463  1  0.607538  0.762638  0.143692  1
  Li  Li464  1  0.607858  0.762232  0.643089  1
  Li  Li465  1  1.012153  0.141982  0.357182  1
  Li  Li466  1  1.012686  0.143100  0.856920  1
  Li  Li467  1  1.012642  0.643701  0.357165  1
  Li  Li468  1  1.013102  0.643060  0.855256  1
  Li  Li469  1  0.512852  0.143946  0.355997  1
  Li  Li470  1  0.512731  0.142950  0.856514  1
  Li  Li471  1  0.512987  0.643771  0.355862  1
  Li  Li472  1  0.512177  0.642444  0.856432  1
  Li  Li473  1  0.392256  0.238003  0.142935  1
  Li  Li474  1  0.394488  0.237141  0.644475  1
  Li  Li475  1  0.393401  0.737097  0.143945  1
  Li  Li476  1  0.394295  0.737450  0.643977  1
  Li  Li477  1  0.893178  0.237546  0.143377  1
  Li  Li478  1  0.892674  0.237632  0.643069  1
  Li  Li479  1  0.892716  0.737920  0.143061  1
  Li  Li480  1  0.893514  0.737233  0.643325  1
  Li  Li481  1  0.987601  0.142695  0.143045  1
  Li  Li482  1  0.987729  0.143115  0.643228  1
  Li  Li483  1  0.987382  0.644221  0.143090  1
  Li  Li484  1  0.987511  0.642284  0.642871  1
  Li  Li485  1  0.487488  0.142976  0.143595  1
  Li  Li486  1  0.487547  0.143249  0.643446  1
  Li  Li487  1  0.487092  0.643416  0.143376  1
  Li  Li488  1  0.487695  0.642005  0.643732  1
  Li  Li489  1  0.394407  0.262807  0.355762  1
  Li  Li490  1  0.393719  0.262384  0.856204  1
  Li  Li491  1  0.392221  0.762183  0.357443  1
  Li  Li492  1  0.393620  0.762857  0.856353  1
  Li  Li493  1  0.893379  0.262860  0.356726  1
  Li  Li494  1  0.894184  0.262632  0.856505  1
  Li  Li495  1  0.894032  0.762672  0.356064  1
  Li  Li496  1  0.894755  0.763025  0.856076  1
  Li  Li497  1  1.012263  0.357319  0.142859  1
  Li  Li498  1  1.012398  0.356720  0.642955  1
  Li  Li499  1  1.012196  0.856394  0.141869  1
  Li  Li500  1  1.012557  0.856660  0.643460  1
  Li  Li501  1  0.512657  0.356725  0.143314  1
  Li  Li502  1  0.512391  0.355632  0.642814  1
  Li  Li503  1  0.512603  0.857347  0.142995  1
  Li  Li504  1  0.512318  0.856702  0.643625  1
  Li  Li505  1  1.106844  0.237566  0.356653  1
  Li  Li506  1  0.105362  0.237236  0.855989  1
  Li  Li507  1  1.107192  0.737705  0.357872  1
  Li  Li508  1  1.107433  0.737939  0.857914  1
  Li  Li509  1  0.606431  0.237112  0.356699  1
  Li  Li510  1  0.606297  0.237518  0.857516  1
  Li  Li511  1  0.607079  0.737297  0.356930  1
  Li  Li512  1  0.606737  0.737594  0.856984  1
  Li  Li513  1  1.106567  0.357016  0.237389  1
  Li  Li514  1  0.106455  0.356295  0.737021  1
  Li  Li515  1  1.106438  0.855610  0.237537  1
  Li  Li516  1  1.107836  0.857345  0.737449  1
  Li  Li517  1  0.607272  0.356642  0.237444  1
  Li  Li518  1  0.605617  0.356717  0.737484  1
  Li  Li519  1  0.606095  0.856987  0.237558  1
  Li  Li520  1  0.606471  0.856077  0.737337  1
  Li  Li521  1  1.106282  0.144403  0.262621  1
  Li  Li522  1  0.106923  0.142746  0.762437  1
  Li  Li523  1  1.107696  0.643100  0.262666  1
  Li  Li524  1  1.106118  0.643320  0.762626  1
  Li  Li525  1  0.604552  0.144239  0.262885  1
  Li  Li526  1  0.605557  0.143691  0.762787  1
  Li  Li527  1  0.607732  0.643430  0.262563  1
  Li  Li528  1  0.605912  0.644084  0.762715  1
  Li  Li529  1  0.392977  0.141815  0.237850  1
  Li  Li530  1  0.394355  0.143754  0.737049  1
  Li  Li531  1  0.392918  0.642517  0.237386  1
  Li  Li532  1  0.393397  0.643457  0.737494  1
  Li  Li533  1  0.893344  0.143257  0.237351  1
  Li  Li534  1  0.892550  0.142338  0.737966  1
  Li  Li535  1  0.891311  0.642449  0.237927  1
  Li  Li536  1  0.893648  0.642922  0.737520  1
  Li  Li537  1  0.392549  0.358454  0.261956  1
  Li  Li538  1  0.393738  0.357364  0.762345  1
  Li  Li539  1  0.392609  0.857259  0.262237  1
  Li  Li540  1  0.393515  0.857830  0.762443  1
  Li  Li541  1  0.892772  0.357575  0.262342  1
  Li  Li542  1  0.894095  0.356597  0.762762  1
  Li  Li543  1  0.892595  0.857435  0.262238  1
  Li  Li544  1  0.891722  0.858274  0.762386  1
  Li  Li545  1  0.237424  0.107739  0.357108  1
  Li  Li546  1  0.237186  1.105764  0.856233  1
  Li  Li547  1  0.237556  0.606567  0.357831  1
  Li  Li548  1  0.237584  0.607442  0.856544  1
  Li  Li549  1  0.737252  0.106519  0.355719  1
  Li  Li550  1  0.737338  0.107136  0.856240  1
  Li  Li551  1  0.737623  0.606538  0.357310  1
  Li  Li552  1  0.737538  0.607549  0.855846  1
  Li  Li553  1  0.356676  1.012923  0.143072  1
  Li  Li554  1  0.356923  1.012052  0.642742  1
  Li  Li555  1  0.356549  0.512581  0.143311  1
  Li  Li556  1  0.356018  0.512698  0.643195  1
  Li  Li557  1  0.856176  1.012975  0.143786  1
  Li  Li558  1  0.856989  1.012652  0.642555  1
  Li  Li559  1  0.855654  0.513317  0.143790  1
  Li  Li560  1  0.856701  0.512053  0.643104  1
  Li  Li561  1  0.262488  0.393214  0.357410  1
  Li  Li562  1  0.262356  0.393215  0.856453  1
  Li  Li563  1  0.262782  0.893533  0.355990  1
  Li  Li564  1  0.262705  0.893315  0.857102  1
  Li  Li565  1  0.762391  0.393548  0.356914  1
  Li  Li566  1  0.762452  0.393466  0.855843  1
  Li  Li567  1  0.762600  0.892936  0.356841  1
  Li  Li568  1  0.762349  0.893704  0.857565  1
  Li  Li569  1  0.141723  0.988029  0.142981  1
  Li  Li570  1  0.144688  0.987207  0.643526  1
  Li  Li571  1  0.143872  0.487464  0.143717  1
  Li  Li572  1  0.144380  0.487340  0.644298  1
  Li  Li573  1  0.642694  0.987935  0.143566  1
  Li  Li574  1  0.642936  0.987341  0.643132  1
  Li  Li575  1  0.642788  0.487570  0.143716  1
  Li  Li576  1  0.643669  0.487126  0.643886  1
  Li  Li577  1  0.236974  0.393910  0.143277  1
  Li  Li578  1  0.237527  0.393180  0.643142  1
  Li  Li579  1  0.237071  0.893757  0.144064  1
  Li  Li580  1  0.237814  0.893104  0.642643  1
  Li  Li581  1  0.737210  0.394799  0.143453  1
  Li  Li582  1  0.736784  0.393887  0.644830  1
  Li  Li583  1  0.737283  0.893100  0.143452  1
  Li  Li584  1  0.737686  0.893260  0.642969  1
  Li  Li585  1  0.143602  1.012725  0.356251  1
  Li  Li586  1  0.143512  1.012407  0.857752  1
  Li  Li587  1  0.143731  0.512819  0.356083  1
  Li  Li588  1  0.143693  0.512716  0.856172  1
  Li  Li589  1  0.643108  1.012504  0.357090  1
  Li  Li590  1  0.643524  1.012473  0.856638  1
  Li  Li591  1  0.643718  0.512881  0.355917  1
  Li  Li592  1  0.643829  0.512946  0.856022  1
  Li  Li593  1  0.262396  0.106335  0.144184  1
  Li  Li594  1  0.262459  1.106818  0.642626  1
  Li  Li595  1  0.261888  0.606520  0.142143  1
  Li  Li596  1  0.262524  0.607048  0.642914  1
  Li  Li597  1  0.762184  0.106613  0.143255  1
  Li  Li598  1  0.762621  0.106373  0.643441  1
  Li  Li599  1  0.762451  0.605808  0.142085  1
  Li  Li600  1  0.762644  0.606734  0.643942  1
  Li  Li601  1  0.356688  0.987187  0.356960  1
  Li  Li602  1  0.356550  0.987672  0.857640  1
  Li  Li603  1  0.356387  0.487471  0.357761  1
  Li  Li604  1  0.356016  0.487458  0.856794  1
  Li  Li605  1  0.856796  0.987381  0.357793  1
  Li  Li606  1  0.855998  0.987442  0.856874  1
  Li  Li607  1  0.856927  0.487937  0.357054  1
  Li  Li608  1  0.856345  0.487920  0.856787  1
  Li  Li609  1  0.356462  0.106748  0.237479  1
  Li  Li610  1  0.356779  1.106157  0.737379  1
  Li  Li611  1  0.357107  0.606247  0.237470  1
  Li  Li612  1  0.355992  0.606249  0.737668  1
  Li  Li613  1  0.857381  0.106464  0.237686  1
  Li  Li614  1  0.857123  0.106546  0.737216  1
  Li  Li615  1  0.857025  0.607099  0.237498  1
  Li  Li616  1  0.856899  0.606684  0.737809  1
  Li  Li617  1  0.357036  0.394569  0.262592  1
  Li  Li618  1  0.358406  0.392170  0.761951  1
  Li  Li619  1  0.357130  0.893143  0.262191  1
  Li  Li620  1  0.356502  0.893156  0.762524  1
  Li  Li621  1  0.857215  0.393181  0.262283  1
  Li  Li622  1  0.857172  0.392283  0.762014  1
  Li  Li623  1  0.856914  0.893575  0.262800  1
  Li  Li624  1  0.857840  0.892504  0.762138  1
  Li  Li625  1  0.142763  0.393256  0.237557  1
  Li  Li626  1  0.143027  0.392368  0.737459  1
  Li  Li627  1  0.142933  0.893839  0.237374  1
  Li  Li628  1  0.143782  0.893273  0.737530  1
  Li  Li629  1  0.643546  0.393445  0.237523  1
  Li  Li630  1  0.643065  0.392087  0.737383  1
  Li  Li631  1  0.643034  0.893418  0.237610  1
  Li  Li632  1  0.643184  0.893443  0.737668  1
  Li  Li633  1  0.144005  0.106431  0.262533  1
  Li  Li634  1  0.142715  1.107909  0.762540  1
  Li  Li635  1  0.142927  0.607317  0.262137  1
  Li  Li636  1  0.144836  0.606566  0.762662  1
  Li  Li637  1  0.643783  0.106365  0.262474  1
  Li  Li638  1  0.643419  0.106898  0.762847  1
  Li  Li639  1  0.644035  0.605956  0.263070  1
  Li  Li640  1  0.644607  0.606042  0.763021  1
  Li  Li641  1  0.237557  0.356924  0.107111  1
  Li  Li642  1  0.237273  0.356732  0.607081  1
  Li  Li643  1  0.238060  0.857759  0.107939  1
  Li  Li644  1  0.237498  0.856400  0.606819  1
  Li  Li645  1  0.737790  0.357894  0.106374  1
  Li  Li646  1  0.737315  0.355985  0.607702  1
  Li  Li647  1  0.737625  0.857481  1.107125  1
  Li  Li648  1  0.737464  0.857048  0.606666  1
  Li  Li649  1  0.356625  0.262606  0.391893  1
  Li  Li650  1  0.356818  0.262471  0.892610  1
  Li  Li651  1  0.357261  0.762304  0.393707  1
  Li  Li652  1  0.356998  0.762723  0.892756  1
  Li  Li653  1  0.855704  0.263274  0.393321  1
  Li  Li654  1  0.855811  0.262715  0.893422  1
  Li  Li655  1  0.855892  0.762391  0.394533  1
  Li  Li656  1  0.857012  0.762685  0.892668  1
  Li  Li657  1  0.262631  0.143428  0.106867  1
  Li  Li658  1  0.262841  0.143108  0.606817  1
  Li  Li659  1  0.262337  0.642782  0.106793  1
  Li  Li660  1  0.262654  0.644253  0.606807  1
  Li  Li661  1  0.762482  0.143061  0.107785  1
  Li  Li662  1  0.762444  0.142554  0.607427  1
  Li  Li663  1  0.762666  0.643972  1.106300  1
  Li  Li664  1  0.762647  0.643737  0.606302  1
  Li  Li665  1  0.142644  0.237905  0.393770  1
  Li  Li666  1  0.144299  0.237338  0.893882  1
  Li  Li667  1  0.144762  0.737032  0.395133  1
  Li  Li668  1  0.142459  0.737561  0.893058  1
  Li  Li669  1  0.642366  0.237662  0.393051  1
  Li  Li670  1  0.642912  0.237339  0.893139  1
  Li  Li671  1  0.642654  0.737965  0.392143  1
  Li  Li672  1  0.642119  0.737858  0.893182  1
  Li  Li673  1  0.237506  0.143207  0.393009  1
  Li  Li674  1  0.237562  0.143998  0.892533  1
  Li  Li675  1  0.237938  0.642435  0.391441  1
  Li  Li676  1  0.237394  0.643639  0.893777  1
  Li  Li677  1  0.737929  0.143382  0.392859  1
  Li  Li678  1  0.737449  0.143162  0.893240  1
  Li  Li679  1  0.737307  0.643596  0.394707  1
  Li  Li680  1  0.737418  0.643914  0.893394  1
  Li  Li681  1  0.143209  0.262931  0.106284  1
  Li  Li682  1  0.143236  0.262504  0.606362  1
  Li  Li683  1  0.144479  0.762872  0.105528  1
  Li  Li684  1  0.143027  0.762183  0.607114  1
  Li  Li685  1  0.643509  0.262872  0.106711  1
  Li  Li686  1  0.642850  0.262051  0.607609  1
  Li  Li687  1  0.642799  0.762307  1.107200  1
  Li  Li688  1  0.642656  0.762225  0.607212  1
  Li  Li689  1  0.262444  0.356517  0.392454  1
  Li  Li690  1  0.262504  0.355513  0.892338  1
  Li  Li691  1  0.262233  0.857522  0.393149  1
  Li  Li692  1  0.262428  0.856921  0.893541  1
  Li  Li693  1  0.762703  0.356448  0.393522  1
  Li  Li694  1  0.762586  0.355561  0.893468  1
  Li  Li695  1  0.762472  0.856659  0.392836  1
  Li  Li696  1  0.762651  0.856274  0.893294  1
  Li  Li697  1  0.357378  0.237881  0.107926  1
  Li  Li698  1  0.356372  0.236912  0.606556  1
  Li  Li699  1  0.355765  0.737138  0.106631  1
  Li  Li700  1  0.357649  0.737493  0.606731  1
  Li  Li701  1  0.856876  0.237766  0.107304  1
  Li  Li702  1  0.856163  0.237336  0.606303  1
  Li  Li703  1  0.855474  0.737416  1.106293  1
  Li  Li704  1  0.857247  0.737344  0.606956  1
  Li  Li705  1  0.355952  0.356195  0.987130  1
  Li  Li706  1  0.357070  0.356187  0.487266  1
  Li  Li707  1  0.355754  0.855749  0.987450  1
  Li  Li708  1  0.355033  0.855181  0.486726  1
  Li  Li709  1  0.855999  0.356745  0.987550  1
  Li  Li710  1  0.856982  0.356921  0.487589  1
  Li  Li711  1  0.856735  0.856911  0.987533  1
  Li  Li712  1  0.856418  0.855563  0.487379  1
  Li  Li713  1  0.356433  0.143838  1.013020  1
  Li  Li714  1  0.357044  0.143492  0.512195  1
  Li  Li715  1  0.357735  0.643062  1.012373  1
  Li  Li716  1  0.357556  0.643674  0.512640  1
  Li  Li717  1  0.856921  0.143007  1.012365  1
  Li  Li718  1  0.857070  0.144004  0.512592  1
  Li  Li719  1  0.857734  0.643147  1.011974  1
  Li  Li720  1  0.856082  0.644129  0.513151  1
  Li  Li721  1  0.142049  0.142561  0.988121  1
  Li  Li722  1  0.142699  0.142969  0.487333  1
  Li  Li723  1  0.143339  0.643011  0.987235  1
  Li  Li724  1  0.142238  0.642543  0.487816  1
  Li  Li725  1  0.643241  0.142881  0.987634  1
  Li  Li726  1  0.643831  0.142712  0.487136  1
  Li  Li727  1  0.643773  0.643612  0.987284  1
  Li  Li728  1  0.643239  0.642228  0.487807  1
  Li  Li729  1  0.142753  0.356359  1.012150  1
  Li  Li730  1  0.143436  0.357268  0.512129  1
  Li  Li731  1  0.143116  0.857106  1.012544  1
  Li  Li732  1  0.142426  0.856403  0.512426  1
  Li  Li733  1  0.643663  0.356956  1.012289  1
  Li  Li734  1  0.643288  0.357728  0.512020  1
  Li  Li735  1  0.644154  0.855318  1.013125  1
  Li  Li736  1  0.643224  0.857173  0.512732  1
