# generated using pymatgen
data_KNa384Li384Ca7
_symmetry_space_group_name_H-M   'P 1'
_cell_length_a   20.31231100
_cell_length_b   20.31233900
_cell_length_c   20.31242400
_cell_angle_alpha   90.00018617
_cell_angle_beta   90.00063749
_cell_angle_gamma   89.99892812
_symmetry_Int_Tables_number   1
_chemical_formula_structural   KNa384Li384Ca7
_chemical_formula_sum   'K1 Na384 Li384 Ca7'
_cell_volume   8380.71412612
_cell_formula_units_Z   1
loop_
 _symmetry_equiv_pos_site_id
 _symmetry_equiv_pos_as_xyz
  1  'x, y, z'
loop_
 _atom_site_type_symbol
 _atom_site_label
 _atom_site_symmetry_multiplicity
 _atom_site_fract_x
 _atom_site_fract_y
 _atom_site_fract_z
 _atom_site_occupancy
  Ca  Ca0  1  1.072300  0.946958  0.674469  1
  Ca  Ca1  1  0.436829  0.177638  0.559063  1
  Ca  Ca2  1  0.326872  1.057145  0.565018  1
  Ca  Ca3  1  0.569273  0.690005  0.446800  1
  Ca  Ca4  1  0.326157  0.196065  0.679602  1
  Ca  Ca5  1  0.813229  0.807497  0.328741  1
  Ca  Ca6  1  0.685453  0.687186  0.311958  1
  Na  Na7  1  1.116629  0.455859  1.041314  1
  Na  Na8  1  0.113448  0.459583  0.541750  1
  Na  Na9  1  0.107770  0.959703  1.043163  1
  Na  Na10  1  0.112150  0.960257  0.541192  1
  Na  Na11  1  0.612068  0.460942  1.042284  1
  Na  Na12  1  0.613367  0.461791  0.542529  1
  Na  Na13  1  0.612003  0.959857  1.041857  1
  Na  Na14  1  0.613692  0.962193  0.541679  1
  Na  Na15  1  0.456028  0.387776  0.457310  1
  Na  Na16  1  0.461007  0.387571  0.957973  1
  Na  Na17  1  0.455503  0.888577  0.460497  1
  Na  Na18  1  0.460507  0.884975  0.957809  1
  Na  Na19  1  0.961122  0.386838  0.458809  1
  Na  Na20  1  0.958190  0.391614  0.957669  1
  Na  Na21  1  0.961937  0.887710  0.459310  1
  Na  Na22  1  0.957829  0.886015  0.960355  1
  Na  Na23  1  0.388400  1.042274  1.041591  1
  Na  Na24  1  0.389219  1.042754  0.539074  1
  Na  Na25  1  0.388500  0.540694  1.042349  1
  Na  Na26  1  0.387294  0.542067  0.543118  1
  Na  Na27  1  0.886889  1.037248  1.047240  1
  Na  Na28  1  0.887650  1.041001  0.542416  1
  Na  Na29  1  0.889237  0.542765  1.038779  1
  Na  Na30  1  0.888842  0.540071  0.540908  1
  Na  Na31  1  1.041754  0.113749  0.456958  1
  Na  Na32  1  1.039532  0.112389  0.958888  1
  Na  Na33  1  1.041930  0.612765  0.458888  1
  Na  Na34  1  1.044772  0.615514  0.957213  1
  Na  Na35  1  0.542535  0.111954  0.459065  1
  Na  Na36  1  0.540277  1.110040  0.958124  1
  Na  Na37  1  0.538162  0.613119  0.460316  1
  Na  Na38  1  0.538419  0.613943  0.955895  1
  Na  Na39  1  0.114086  1.040866  0.455439  1
  Na  Na40  1  0.112887  1.045084  0.959972  1
  Na  Na41  1  0.112798  0.539687  0.459549  1
  Na  Na42  1  1.111220  0.539596  0.955541  1
  Na  Na43  1  0.613995  1.042694  0.462578  1
  Na  Na44  1  0.610757  1.039333  0.960196  1
  Na  Na45  1  0.611363  0.543666  0.459718  1
  Na  Na46  1  0.612665  0.537912  0.961698  1
  Na  Na47  1  1.042885  0.387670  1.039737  1
  Na  Na48  1  1.045312  0.387303  0.539328  1
  Na  Na49  1  1.040232  0.884595  1.042674  1
  Na  Na50  1  1.039451  0.886622  0.541539  1
  Na  Na51  1  0.540520  0.387110  1.039719  1
  Na  Na52  1  0.544633  0.387445  0.538619  1
  Na  Na53  1  0.535753  0.888009  1.041863  1
  Na  Na54  1  0.540828  0.888360  0.539504  1
  Na  Na55  1  0.387779  0.456562  0.462375  1
  Na  Na56  1  0.389424  0.455449  0.963655  1
  Na  Na57  1  0.391095  0.958099  0.465107  1
  Na  Na58  1  0.384964  0.955567  0.961952  1
  Na  Na59  1  0.885480  0.460537  0.459270  1
  Na  Na60  1  0.892591  0.461066  0.956000  1
  Na  Na61  1  0.886560  0.959903  0.457349  1
  Na  Na62  1  0.886612  0.955170  0.959763  1
  Na  Na63  1  0.461277  1.113161  1.039599  1
  Na  Na64  1  0.461396  0.114753  0.539648  1
  Na  Na65  1  0.457293  0.608844  1.042087  1
  Na  Na66  1  0.458644  0.610306  0.540331  1
  Na  Na67  1  0.958438  0.113704  1.040882  1
  Na  Na68  1  0.960591  0.113079  0.542791  1
  Na  Na69  1  0.963247  0.613043  1.044761  1
  Na  Na70  1  0.961399  0.608949  0.542963  1
  Na  Na71  1  0.460134  1.040692  1.113353  1
  Na  Na72  1  0.456097  1.040120  0.612155  1
  Na  Na73  1  0.459024  0.538520  0.114014  1
  Na  Na74  1  0.456985  0.539575  0.610068  1
  Na  Na75  1  0.957320  1.040928  0.114869  1
  Na  Na76  1  0.958537  1.043012  0.611065  1
  Na  Na77  1  0.957511  0.540550  1.112204  1
  Na  Na78  1  0.956572  0.541873  0.608868  1
  Na  Na79  1  0.457340  0.458198  0.385699  1
  Na  Na80  1  0.462329  0.455595  0.885192  1
  Na  Na81  1  0.457774  0.959260  0.387157  1
  Na  Na82  1  0.458534  0.958988  0.888379  1
  Na  Na83  1  0.955862  0.460268  0.387340  1
  Na  Na84  1  0.958356  0.458932  0.888094  1
  Na  Na85  1  0.958342  0.960943  0.389317  1
  Na  Na86  1  0.956322  0.962513  0.885636  1
  Na  Na87  1  1.043094  1.041090  0.384769  1
  Na  Na88  1  1.043225  1.037872  0.889220  1
  Na  Na89  1  1.037564  0.544167  0.390184  1
  Na  Na90  1  1.043222  0.537874  0.889687  1
  Na  Na91  1  0.542832  1.039529  0.383100  1
  Na  Na92  1  0.543392  1.042215  0.891564  1
  Na  Na93  1  0.540442  0.540966  0.389648  1
  Na  Na94  1  0.540222  0.539389  0.888207  1
  Na  Na95  1  1.041332  0.454829  1.113926  1
  Na  Na96  1  1.041906  0.458009  0.611937  1
  Na  Na97  1  1.041421  0.960646  0.112406  1
  Na  Na98  1  1.040044  0.957935  0.612520  1
  Na  Na99  1  0.540838  0.459361  0.110561  1
  Na  Na100  1  0.541075  0.456386  0.612432  1
  Na  Na101  1  0.538735  0.957803  1.112263  1
  Na  Na102  1  0.537744  0.955331  0.612260  1
  Na  Na103  1  0.115289  0.209189  0.288877  1
  Na  Na104  1  0.113685  0.208122  0.790022  1
  Na  Na105  1  0.112312  0.712386  0.296761  1
  Na  Na106  1  1.112958  0.709982  0.791193  1
  Na  Na107  1  0.611008  0.206990  0.292916  1
  Na  Na108  1  0.615460  0.208934  0.791531  1
  Na  Na109  1  0.612841  0.707947  0.290136  1
  Na  Na110  1  0.608387  0.707270  0.792836  1
  Na  Na111  1  0.464076  0.136246  0.207854  1
  Na  Na112  1  0.460953  0.137355  0.706837  1
  Na  Na113  1  0.458457  0.639162  0.205508  1
  Na  Na114  1  0.455124  0.637868  0.709222  1
  Na  Na115  1  0.958000  0.134589  0.210395  1
  Na  Na116  1  0.960090  0.135890  0.706041  1
  Na  Na117  1  0.953527  0.639171  0.212833  1
  Na  Na118  1  0.956033  0.637276  0.710703  1
  Na  Na119  1  0.389722  0.291870  0.290338  1
  Na  Na120  1  0.384933  0.295356  0.787516  1
  Na  Na121  1  0.388249  0.788252  0.290673  1
  Na  Na122  1  0.389012  0.793233  0.787570  1
  Na  Na123  1  0.887053  0.292463  0.293226  1
  Na  Na124  1  0.888269  0.291995  0.791177  1
  Na  Na125  1  0.886248  0.792290  0.290936  1
  Na  Na126  1  0.883684  0.790881  0.789859  1
  Na  Na127  1  1.042957  0.361973  0.211555  1
  Na  Na128  1  1.039377  0.362537  0.705309  1
  Na  Na129  1  1.043050  0.862658  0.208686  1
  Na  Na130  1  1.039657  0.864599  0.711128  1
  Na  Na131  1  0.539647  0.364020  0.207702  1
  Na  Na132  1  0.539739  0.360253  0.704643  1
  Na  Na133  1  0.538290  0.861101  0.210091  1
  Na  Na134  1  0.538239  0.862210  0.705688  1
  Na  Na135  1  0.111074  0.287241  0.207993  1
  Na  Na136  1  0.110241  0.295787  0.712355  1
  Na  Na137  1  0.114154  0.791088  0.211169  1
  Na  Na138  1  1.111942  0.791958  0.708862  1
  Na  Na139  1  0.610333  0.288969  0.203293  1
  Na  Na140  1  0.611362  0.291477  0.707143  1
  Na  Na141  1  0.611230  0.792346  0.209576  1
  Na  Na142  1  0.608995  0.793716  0.705607  1
  Na  Na143  1  1.040359  0.138752  0.290451  1
  Na  Na144  1  1.042771  0.138173  0.791363  1
  Na  Na145  1  1.043239  0.638909  0.289046  1
  Na  Na146  1  1.045670  0.641637  0.788314  1
  Na  Na147  1  0.541862  0.136226  0.290988  1
  Na  Na148  1  0.538755  0.137807  0.793103  1
  Na  Na149  1  0.540985  0.636566  0.290113  1
  Na  Na150  1  0.542753  0.635511  0.790454  1
  Na  Na151  1  0.387352  0.209625  0.208794  1
  Na  Na152  1  0.385871  0.207779  0.709251  1
  Na  Na153  1  0.386562  0.707152  0.209596  1
  Na  Na154  1  0.387438  0.711232  0.707286  1
  Na  Na155  1  0.886474  0.211698  0.205673  1
  Na  Na156  1  0.888188  0.210320  0.706662  1
  Na  Na157  1  0.888276  0.709156  0.208977  1
  Na  Na158  1  0.890001  0.710331  0.711010  1
  Na  Na159  1  0.459504  0.362558  0.292237  1
  Na  Na160  1  0.458757  0.363502  0.792888  1
  Na  Na161  1  0.463629  0.861490  0.295121  1
  Na  Na162  1  0.456333  0.863046  0.789402  1
  Na  Na163  1  0.958116  0.361230  0.288801  1
  Na  Na164  1  0.959934  0.361819  0.790700  1
  Na  Na165  1  0.959132  0.864241  0.291051  1
  Na  Na166  1  0.960232  0.862725  0.795266  1
  Na  Na167  1  0.457203  0.289372  0.361223  1
  Na  Na168  1  0.457620  0.288545  0.863379  1
  Na  Na169  1  0.459076  0.791033  0.362075  1
  Na  Na170  1  0.458186  0.789895  0.859618  1
  Na  Na171  1  0.960662  0.292743  0.362149  1
  Na  Na172  1  0.958381  0.292699  0.862002  1
  Na  Na173  1  0.960639  0.792535  0.362311  1
  Na  Na174  1  0.959904  0.793949  0.862840  1
  Na  Na175  1  0.459008  0.208580  0.135423  1
  Na  Na176  1  0.459433  0.207897  0.635124  1
  Na  Na177  1  0.460233  0.706865  0.135980  1
  Na  Na178  1  0.457888  0.709628  0.636769  1
  Na  Na179  1  0.955342  0.210856  0.139558  1
  Na  Na180  1  0.960708  0.210471  0.637892  1
  Na  Na181  1  0.957091  0.709395  0.135655  1
  Na  Na182  1  0.958602  0.706693  0.639448  1
  Na  Na183  1  1.044185  0.290683  0.138050  1
  Na  Na184  1  1.044047  0.287383  0.637304  1
  Na  Na185  1  1.042732  0.790729  0.138315  1
  Na  Na186  1  1.044421  0.790720  0.638151  1
  Na  Na187  1  0.542726  0.289894  0.136393  1
  Na  Na188  1  0.540749  0.290541  0.637121  1
  Na  Na189  1  0.542065  0.787205  0.138025  1
  Na  Na190  1  0.544679  0.788742  0.638575  1
  Na  Na191  1  1.040149  0.207274  0.358220  1
  Na  Na192  1  1.038160  0.206798  0.863765  1
  Na  Na193  1  1.040646  0.709318  0.367792  1
  Na  Na194  1  1.040858  0.707810  0.863741  1
  Na  Na195  1  0.535989  0.208481  0.361705  1
  Na  Na196  1  0.539817  0.209087  0.862338  1
  Na  Na197  1  0.541274  0.706893  0.360849  1
  Na  Na198  1  0.537284  0.706918  0.862121  1
  Na  Na199  1  0.365505  0.461698  0.294830  1
  Na  Na200  1  0.364269  0.462000  0.793009  1
  Na  Na201  1  0.357760  0.959571  0.287505  1
  Na  Na202  1  0.360477  0.955663  0.788995  1
  Na  Na203  1  0.862663  0.459432  0.291929  1
  Na  Na204  1  0.862852  0.457615  0.792321  1
  Na  Na205  1  0.856249  0.962528  0.296897  1
  Na  Na206  1  0.864255  0.961953  0.790937  1
  Na  Na207  1  0.210247  0.387491  0.206083  1
  Na  Na208  1  0.210508  0.388105  0.706663  1
  Na  Na209  1  0.209664  0.885711  0.206718  1
  Na  Na210  1  0.206104  0.889138  0.709002  1
  Na  Na211  1  0.705676  0.388132  0.209776  1
  Na  Na212  1  0.705336  0.388802  0.711178  1
  Na  Na213  1  0.701519  0.887438  0.209804  1
  Na  Na214  1  0.705459  0.888463  0.709542  1
  Na  Na215  1  0.137463  1.040325  0.289184  1
  Na  Na216  1  0.138172  1.039124  0.794624  1
  Na  Na217  1  0.136729  0.541717  0.289111  1
  Na  Na218  1  0.135559  0.545310  0.789894  1
  Na  Na219  1  0.634841  1.038059  0.293868  1
  Na  Na220  1  0.632661  1.040933  0.789787  1
  Na  Na221  1  0.635768  0.535250  0.295170  1
  Na  Na222  1  0.638049  0.539783  0.791222  1
  Na  Na223  1  0.294085  1.112460  0.207350  1
  Na  Na224  1  0.292475  1.110145  0.710893  1
  Na  Na225  1  0.289705  0.613606  0.209581  1
  Na  Na226  1  0.290819  0.613715  0.707335  1
  Na  Na227  1  0.791280  1.108482  0.210184  1
  Na  Na228  1  0.789981  1.113122  0.707432  1
  Na  Na229  1  0.788846  0.613078  0.204680  1
  Na  Na230  1  0.788928  0.613000  0.706515  1
  Na  Na231  1  0.363559  1.041450  0.209489  1
  Na  Na232  1  0.363082  1.038680  0.709491  1
  Na  Na233  1  0.360943  0.541766  0.209112  1
  Na  Na234  1  0.361521  0.539815  0.707698  1
  Na  Na235  1  0.862294  1.043303  0.212211  1
  Na  Na236  1  0.858835  1.042456  0.710846  1
  Na  Na237  1  0.860771  0.536872  0.204978  1
  Na  Na238  1  0.863344  0.541420  0.709378  1
  Na  Na239  1  0.291026  0.387378  0.286367  1
  Na  Na240  1  0.289886  0.387809  0.794903  1
  Na  Na241  1  0.296278  0.884329  0.287172  1
  Na  Na242  1  0.291428  0.886608  0.794035  1
  Na  Na243  1  0.790408  0.388019  0.292096  1
  Na  Na244  1  0.794301  0.385988  0.789396  1
  Na  Na245  1  0.794139  0.890119  0.291972  1
  Na  Na246  1  0.793096  0.891789  0.789546  1
  Na  Na247  1  0.138152  0.458765  0.210444  1
  Na  Na248  1  0.137710  0.462983  0.704679  1
  Na  Na249  1  0.136074  0.958044  0.208982  1
  Na  Na250  1  0.135081  0.962512  0.708605  1
  Na  Na251  1  0.636108  0.458080  0.212839  1
  Na  Na252  1  0.637865  0.459320  0.708791  1
  Na  Na253  1  0.637271  0.957690  0.208725  1
  Na  Na254  1  0.636809  0.955707  0.708853  1
  Na  Na255  1  0.207854  1.111022  0.290040  1
  Na  Na256  1  0.209322  1.112629  0.790737  1
  Na  Na257  1  0.208667  0.612775  0.294496  1
  Na  Na258  1  0.208792  0.610538  0.789236  1
  Na  Na259  1  0.708723  1.113116  0.289960  1
  Na  Na260  1  0.708910  1.112233  0.792065  1
  Na  Na261  1  0.706779  0.610588  0.291272  1
  Na  Na262  1  0.710528  0.612127  0.792460  1
  Na  Na263  1  0.211081  1.041243  0.362142  1
  Na  Na264  1  0.210655  1.041244  0.862449  1
  Na  Na265  1  0.206904  0.540109  0.364007  1
  Na  Na266  1  0.211337  0.543599  0.861338  1
  Na  Na267  1  0.709761  1.039995  0.361641  1
  Na  Na268  1  0.710133  1.039672  0.860414  1
  Na  Na269  1  0.709753  0.543272  0.362932  1
  Na  Na270  1  0.708155  0.543209  0.861788  1
  Na  Na271  1  0.207949  0.458249  0.136359  1
  Na  Na272  1  0.206787  0.460150  0.637486  1
  Na  Na273  1  0.208374  0.959233  0.140753  1
  Na  Na274  1  0.208480  0.960318  0.636301  1
  Na  Na275  1  0.708066  0.457758  0.134918  1
  Na  Na276  1  0.708389  0.455084  0.639657  1
  Na  Na277  1  0.705524  0.959048  0.138273  1
  Na  Na278  1  0.708154  0.961043  0.636698  1
  Na  Na279  1  0.291947  1.039775  0.140475  1
  Na  Na280  1  0.289010  1.037421  0.640042  1
  Na  Na281  1  0.292432  0.537931  0.138824  1
  Na  Na282  1  0.291989  0.539113  0.641387  1
  Na  Na283  1  0.788411  1.041606  0.137621  1
  Na  Na284  1  0.792702  1.040653  0.636008  1
  Na  Na285  1  0.789283  0.539385  0.139184  1
  Na  Na286  1  0.792097  0.539141  0.637629  1
  Na  Na287  1  0.291842  0.458062  0.363130  1
  Na  Na288  1  0.294834  0.460659  0.860831  1
  Na  Na289  1  0.289583  0.956122  0.362728  1
  Na  Na290  1  0.292151  0.958912  0.864467  1
  Na  Na291  1  0.792485  0.459366  0.363627  1
  Na  Na292  1  0.789909  0.458442  0.863240  1
  Na  Na293  1  0.790478  0.957697  0.361855  1
  Na  Na294  1  0.787753  0.953561  0.862471  1
  Na  Na295  1  0.364128  0.208406  1.041329  1
  Na  Na296  1  0.363640  0.208489  0.542295  1
  Na  Na297  1  0.363463  0.707265  1.039387  1
  Na  Na298  1  0.362431  0.709647  0.543499  1
  Na  Na299  1  0.861146  0.203988  1.035541  1
  Na  Na300  1  0.864426  0.207740  0.535725  1
  Na  Na301  1  0.865105  0.709818  1.040984  1
  Na  Na302  1  0.864393  0.710318  0.543367  1
  Na  Na303  1  0.209959  0.138754  0.456709  1
  Na  Na304  1  0.207674  0.135061  0.961084  1
  Na  Na305  1  0.208287  0.635929  0.459723  1
  Na  Na306  1  0.213483  0.637917  0.956489  1
  Na  Na307  1  0.709585  0.136517  0.458557  1
  Na  Na308  1  0.708206  0.137813  0.962867  1
  Na  Na309  1  0.707792  0.635957  0.459218  1
  Na  Na310  1  0.706303  0.639020  0.960224  1
  Na  Na311  1  0.135539  0.292359  1.041654  1
  Na  Na312  1  0.135934  0.292962  0.540288  1
  Na  Na313  1  0.138060  0.791363  1.043011  1
  Na  Na314  1  0.139615  0.795454  0.541303  1
  Na  Na315  1  0.638797  0.297114  1.039497  1
  Na  Na316  1  0.637589  0.293261  0.536631  1
  Na  Na317  1  0.634435  0.792221  1.041668  1
  Na  Na318  1  0.634827  0.791438  0.540564  1
  Na  Na319  1  0.288592  0.364863  0.456610  1
  Na  Na320  1  0.291797  0.361600  0.960349  1
  Na  Na321  1  0.289531  0.861056  0.456902  1
  Na  Na322  1  0.296136  0.862494  0.963098  1
  Na  Na323  1  0.793166  0.364460  0.460587  1
  Na  Na324  1  0.792266  0.365423  0.959419  1
  Na  Na325  1  0.794199  0.861905  0.458553  1
  Na  Na326  1  0.788800  0.864385  0.957238  1
  Na  Na327  1  0.364565  0.291345  0.458966  1
  Na  Na328  1  0.362630  0.289228  0.956814  1
  Na  Na329  1  0.360800  0.796557  0.459945  1
  Na  Na330  1  0.363542  0.790682  0.958472  1
  Na  Na331  1  0.859341  0.290837  0.459248  1
  Na  Na332  1  0.861995  0.293959  0.960502  1
  Na  Na333  1  0.865418  0.790134  0.459484  1
  Na  Na334  1  0.858634  0.788246  0.954203  1
  Na  Na335  1  0.291323  0.137317  1.039495  1
  Na  Na336  1  0.293663  0.137012  0.541353  1
  Na  Na337  1  0.288764  0.633566  1.039871  1
  Na  Na338  1  0.294009  0.636810  0.539961  1
  Na  Na339  1  0.790016  0.141061  1.041974  1
  Na  Na340  1  0.791771  0.140506  0.540114  1
  Na  Na341  1  0.790423  0.637762  1.037834  1
  Na  Na342  1  0.793502  0.636189  0.540536  1
  Na  Na343  1  0.139599  0.209499  0.455757  1
  Na  Na344  1  0.138554  0.210407  0.957959  1
  Na  Na345  1  0.141946  0.704591  0.461974  1
  Na  Na346  1  0.138823  0.708713  0.959670  1
  Na  Na347  1  0.638622  0.208395  0.459302  1
  Na  Na348  1  0.639973  0.210169  0.960167  1
  Na  Na349  1  0.638430  0.709457  0.456609  1
  Na  Na350  1  0.636586  0.710045  0.955987  1
  Na  Na351  1  0.208036  0.361151  1.039868  1
  Na  Na352  1  0.210018  0.360472  0.540253  1
  Na  Na353  1  0.209005  0.860691  1.039875  1
  Na  Na354  1  0.207072  0.863070  0.543038  1
  Na  Na355  1  0.709042  0.362125  1.041443  1
  Na  Na356  1  0.714433  0.364614  0.543988  1
  Na  Na357  1  0.706633  0.864497  1.038931  1
  Na  Na358  1  0.709439  0.863129  0.541685  1
  Na  Na359  1  0.210881  0.291272  1.109842  1
  Na  Na360  1  0.207669  0.290119  0.613952  1
  Na  Na361  1  0.208666  0.791325  0.112191  1
  Na  Na362  1  0.208755  0.791919  0.613097  1
  Na  Na363  1  0.708882  0.291627  0.111856  1
  Na  Na364  1  0.709803  0.291400  0.612104  1
  Na  Na365  1  0.712373  0.794516  1.113033  1
  Na  Na366  1  0.711483  0.793372  0.610487  1
  Na  Na367  1  0.207339  0.212155  0.390611  1
  Na  Na368  1  0.205076  0.210394  0.885614  1
  Na  Na369  1  0.204509  0.709645  0.389817  1
  Na  Na370  1  0.206976  0.710599  0.889911  1
  Na  Na371  1  0.709560  0.209383  0.386347  1
  Na  Na372  1  0.708893  0.208797  0.883768  1
  Na  Na373  1  0.706764  0.712170  0.386712  1
  Na  Na374  1  0.706485  0.709073  0.890193  1
  Na  Na375  1  0.288908  0.291963  0.385606  1
  Na  Na376  1  0.291096  0.292656  0.886300  1
  Na  Na377  1  0.292545  0.787010  0.387902  1
  Na  Na378  1  0.290853  0.791256  0.888213  1
  Na  Na379  1  0.788515  0.293931  0.388498  1
  Na  Na380  1  0.791657  0.291943  0.885756  1
  Na  Na381  1  0.793248  0.790922  0.386153  1
  Na  Na382  1  0.793392  0.790594  0.887998  1
  Na  Na383  1  0.289672  0.205154  1.110792  1
  Na  Na384  1  0.293182  0.207011  0.610928  1
  Na  Na385  1  0.289667  0.704829  0.111323  1
  Na  Na386  1  0.287991  0.705003  0.613246  1
  Na  Na387  1  0.790033  0.209848  0.113117  1
  Na  Na388  1  0.791435  0.210979  0.612843  1
  Na  Na389  1  0.786964  0.704109  1.107638  1
  Na  Na390  1  0.790112  0.708231  0.615509  1
  K  K391  1  0.063302  0.812804  0.306520  1
  Li  Li392  1  0.986259  0.101607  0.101469  1
  Li  Li393  1  0.989113  0.106826  0.605306  1
  Li  Li394  1  0.987471  0.605985  1.106410  1
  Li  Li395  1  0.986177  0.604787  0.602587  1
  Li  Li396  1  0.488630  1.102469  1.104001  1
  Li  Li397  1  0.489794  0.105548  0.605353  1
  Li  Li398  1  0.487930  0.603440  0.105111  1
  Li  Li399  1  0.487897  0.603026  0.603363  1
  Li  Li400  1  0.104796  1.012177  0.394860  1
  Li  Li401  1  0.105209  1.012597  0.895240  1
  Li  Li402  1  0.102335  0.512249  0.399615  1
  Li  Li403  1  1.103999  0.512340  0.896703  1
  Li  Li404  1  0.603733  1.011967  0.394108  1
  Li  Li405  1  0.602503  1.012610  0.896065  1
  Li  Li406  1  0.602715  0.513356  0.395632  1
  Li  Li407  1  0.606871  0.512131  0.892912  1
  Li  Li408  1  1.011490  0.395794  1.103504  1
  Li  Li409  1  1.013180  0.398045  0.602939  1
  Li  Li410  1  1.011646  0.897330  0.106213  1
  Li  Li411  1  1.013404  0.896776  0.605509  1
  Li  Li412  1  0.512198  0.397280  0.103333  1
  Li  Li413  1  0.511868  0.395306  0.604930  1
  Li  Li414  1  0.511371  0.894552  1.103615  1
  Li  Li415  1  0.513302  0.898206  0.605345  1
  Li  Li416  1  0.399071  0.985494  0.395358  1
  Li  Li417  1  0.395217  0.988623  0.894617  1
  Li  Li418  1  0.397060  0.489000  0.394177  1
  Li  Li419  1  0.397698  0.485345  0.896494  1
  Li  Li420  1  0.897736  0.987639  0.396342  1
  Li  Li421  1  0.895942  0.987698  0.896779  1
  Li  Li422  1  0.894091  0.488548  0.394520  1
  Li  Li423  1  0.894792  0.488350  0.894555  1
  Li  Li424  1  0.987135  0.397095  0.396512  1
  Li  Li425  1  0.989063  0.399095  0.896579  1
  Li  Li426  1  0.987688  0.898020  0.399113  1
  Li  Li427  1  0.988856  0.893518  0.895325  1
  Li  Li428  1  0.488444  0.397265  0.397152  1
  Li  Li429  1  0.487809  0.396446  0.896453  1
  Li  Li430  1  0.485876  0.897519  0.399361  1
  Li  Li431  1  0.486787  0.898700  0.897111  1
  Li  Li432  1  0.396899  1.011830  1.097874  1
  Li  Li433  1  0.395327  1.011510  0.602473  1
  Li  Li434  1  0.396582  0.513191  0.101473  1
  Li  Li435  1  0.396609  0.512514  0.602655  1
  Li  Li436  1  0.895658  1.012919  0.103662  1
  Li  Li437  1  0.896643  1.012679  0.603179  1
  Li  Li438  1  0.893034  0.511068  1.106009  1
  Li  Li439  1  0.895870  0.514934  0.600928  1
  Li  Li440  1  1.012790  0.104868  0.399624  1
  Li  Li441  1  1.012352  0.105875  0.896119  1
  Li  Li442  1  1.011273  0.603975  0.396283  1
  Li  Li443  1  1.012360  0.604654  0.895023  1
  Li  Li444  1  0.512348  0.104254  0.396155  1
  Li  Li445  1  0.514180  1.100512  0.898358  1
  Li  Li446  1  0.510901  0.604040  0.397831  1
  Li  Li447  1  0.513245  0.604752  0.895936  1
  Li  Li448  1  0.105077  0.988452  0.105452  1
  Li  Li449  1  0.103990  0.987508  0.603034  1
  Li  Li450  1  1.105222  0.486473  1.103668  1
  Li  Li451  1  0.108593  0.488290  0.604384  1
  Li  Li452  1  0.603027  0.986916  1.102594  1
  Li  Li453  1  0.606993  0.987421  0.606098  1
  Li  Li454  1  0.603852  0.487707  0.103118  1
  Li  Li455  1  0.605384  0.488336  0.604266  1
  Li  Li456  1  0.102461  0.102418  0.988195  1
  Li  Li457  1  0.101436  0.103318  0.487126  1
  Li  Li458  1  1.102764  0.601988  0.986440  1
  Li  Li459  1  0.104835  0.603929  0.488743  1
  Li  Li460  1  0.604413  1.103904  0.987081  1
  Li  Li461  1  0.603197  0.103991  0.487098  1
  Li  Li462  1  0.602215  0.603457  0.986694  1
  Li  Li463  1  0.603200  0.602415  0.488048  1
  Li  Li464  1  1.105264  0.394488  1.012320  1
  Li  Li465  1  0.104995  0.396306  0.511768  1
  Li  Li466  1  0.105068  0.894234  1.012356  1
  Li  Li467  1  0.105426  0.894490  0.511757  1
  Li  Li468  1  0.600824  0.397140  1.012504  1
  Li  Li469  1  0.601339  0.398195  0.513742  1
  Li  Li470  1  0.604937  0.895443  1.012625  1
  Li  Li471  1  0.603500  0.895771  0.512812  1
  Li  Li472  1  0.395677  0.395604  0.988283  1
  Li  Li473  1  0.397175  0.396383  0.487249  1
  Li  Li474  1  0.395612  0.895505  0.989328  1
  Li  Li475  1  0.395814  0.894742  0.488245  1
  Li  Li476  1  0.895804  0.395324  0.987870  1
  Li  Li477  1  0.896423  0.395405  0.487753  1
  Li  Li478  1  0.897536  0.895642  0.988092  1
  Li  Li479  1  0.895304  0.894349  0.487703  1
  Li  Li480  1  0.396165  1.100489  1.013256  1
  Li  Li481  1  0.395772  0.102395  0.510437  1
  Li  Li482  1  0.398116  0.600411  1.012570  1
  Li  Li483  1  0.398329  0.602141  0.512674  1
  Li  Li484  1  0.894842  0.104698  1.012852  1
  Li  Li485  1  0.895821  0.103584  0.512003  1
  Li  Li486  1  0.893413  0.603473  1.011709  1
  Li  Li487  1  0.893799  0.603119  0.514675  1
  Li  Li488  1  0.986778  0.353356  0.353469  1
  Li  Li489  1  0.987360  0.352728  0.853034  1
  Li  Li490  1  0.986792  0.851542  0.354105  1
  Li  Li491  1  0.986405  0.851496  0.851226  1
  Li  Li492  1  0.487153  0.353233  0.352276  1
  Li  Li493  1  0.488770  0.352239  0.852597  1
  Li  Li494  1  0.486180  0.847584  0.352433  1
  Li  Li495  1  0.486664  0.851765  0.852749  1
  Li  Li496  1  0.100448  0.261463  0.146121  1
  Li  Li497  1  0.104120  0.262653  0.645487  1
  Li  Li498  1  0.102327  0.763210  0.146684  1
  Li  Li499  1  1.103225  0.763583  0.646436  1
  Li  Li500  1  0.601461  0.263561  0.149636  1
  Li  Li501  1  0.604417  0.262855  0.645578  1
  Li  Li502  1  0.601794  0.760798  0.147204  1
  Li  Li503  1  0.602553  0.764355  0.646611  1
  Li  Li504  1  1.013996  0.149857  0.351212  1
  Li  Li505  1  1.012342  0.144920  0.855166  1
  Li  Li506  1  1.010991  0.646148  0.356466  1
  Li  Li507  1  1.013085  0.645524  0.854289  1
  Li  Li508  1  0.512374  0.146995  0.350552  1
  Li  Li509  1  0.512562  0.147636  0.852494  1
  Li  Li510  1  0.511985  0.646901  0.355164  1
  Li  Li511  1  0.510986  0.643306  0.855326  1
  Li  Li512  1  0.396662  0.236054  0.144526  1
  Li  Li513  1  0.396900  0.236344  0.645312  1
  Li  Li514  1  0.396155  0.735376  0.147806  1
  Li  Li515  1  0.397566  0.737072  0.647127  1
  Li  Li516  1  0.895463  0.236687  0.147345  1
  Li  Li517  1  0.898905  0.237799  0.647503  1
  Li  Li518  1  0.897314  0.737608  0.146469  1
  Li  Li519  1  0.896176  0.738887  0.648109  1
  Li  Li520  1  0.986955  0.147566  0.146557  1
  Li  Li521  1  0.988600  0.143104  0.643693  1
  Li  Li522  1  0.988026  0.641776  0.141194  1
  Li  Li523  1  0.988902  0.642608  0.646293  1
  Li  Li524  1  0.490015  0.141413  0.142504  1
  Li  Li525  1  0.488022  0.144376  0.642562  1
  Li  Li526  1  0.486888  0.644395  0.143632  1
  Li  Li527  1  0.487414  0.647891  0.646482  1
  Li  Li528  1  0.396309  0.262058  0.354316  1
  Li  Li529  1  0.397424  0.261241  0.854410  1
  Li  Li530  1  0.396171  0.761402  0.354585  1
  Li  Li531  1  0.398025  0.762688  0.855284  1
  Li  Li532  1  0.898203  0.263850  0.351699  1
  Li  Li533  1  0.899286  0.263411  0.853917  1
  Li  Li534  1  0.894546  0.761366  0.356733  1
  Li  Li535  1  0.893718  0.761509  0.855224  1
  Li  Li536  1  1.012483  0.354063  0.146565  1
  Li  Li537  1  1.011882  0.354270  0.647194  1
  Li  Li538  1  1.012918  0.854128  0.146913  1
  Li  Li539  1  1.013853  0.854278  0.648691  1
  Li  Li540  1  0.511341  0.353473  0.148011  1
  Li  Li541  1  0.512499  0.353866  0.646640  1
  Li  Li542  1  0.511558  0.853553  0.145507  1
  Li  Li543  1  0.513582  0.855074  0.646639  1
  Li  Li544  1  0.106864  0.238284  0.354846  1
  Li  Li545  1  0.103432  0.238048  0.852335  1
  Li  Li546  1  0.104623  0.738134  0.353486  1
  Li  Li547  1  1.107087  0.736692  0.851983  1
  Li  Li548  1  0.604960  0.238039  0.354578  1
  Li  Li549  1  0.604063  0.238354  0.853844  1
  Li  Li550  1  0.604974  0.739917  0.355116  1
  Li  Li551  1  0.603292  0.738516  0.853127  1
  Li  Li552  1  0.104841  0.356095  0.238094  1
  Li  Li553  1  0.102203  0.352540  0.737008  1
  Li  Li554  1  0.101635  0.853910  0.237659  1
  Li  Li555  1  1.105503  0.853836  0.738555  1
  Li  Li556  1  0.604202  0.353004  0.236588  1
  Li  Li557  1  0.604828  0.353926  0.738645  1
  Li  Li558  1  0.605687  0.853228  0.237692  1
  Li  Li559  1  0.605119  0.854521  0.738726  1
  Li  Li560  1  0.100973  0.146601  0.262608  1
  Li  Li561  1  0.103114  0.146360  0.761721  1
  Li  Li562  1  0.102142  0.646697  0.263810  1
  Li  Li563  1  1.102801  0.647247  0.762670  1
  Li  Li564  1  0.600484  0.146707  0.261995  1
  Li  Li565  1  0.604061  0.146939  0.761956  1
  Li  Li566  1  0.600195  0.648720  0.263094  1
  Li  Li567  1  0.601280  0.647061  0.762148  1
  Li  Li568  1  0.394761  0.143630  0.238275  1
  Li  Li569  1  0.396145  0.148573  0.737294  1
  Li  Li570  1  0.396982  0.647431  0.237053  1
  Li  Li571  1  0.397771  0.646844  0.738095  1
  Li  Li572  1  0.893486  0.144813  0.237918  1
  Li  Li573  1  0.897022  0.147638  0.736539  1
  Li  Li574  1  0.896084  0.648575  0.237534  1
  Li  Li575  1  0.897672  0.649665  0.737478  1
  Li  Li576  1  0.396371  0.354302  0.262606  1
  Li  Li577  1  0.395143  0.353401  0.762099  1
  Li  Li578  1  0.392738  0.856456  0.261586  1
  Li  Li579  1  0.396142  0.854511  0.762354  1
  Li  Li580  1  0.895948  0.353175  0.261915  1
  Li  Li581  1  0.895555  0.356464  0.761236  1
  Li  Li582  1  0.895515  0.853381  0.261080  1
  Li  Li583  1  0.895527  0.855289  0.762110  1
  Li  Li584  1  0.237890  1.103653  0.352553  1
  Li  Li585  1  0.236506  1.102534  0.850588  1
  Li  Li586  1  0.237208  0.603330  0.354974  1
  Li  Li587  1  0.238802  0.603919  0.854063  1
  Li  Li588  1  0.736649  1.103555  0.352781  1
  Li  Li589  1  0.738285  1.102905  0.852243  1
  Li  Li590  1  0.735338  0.605392  0.353492  1
  Li  Li591  1  0.736693  0.603557  0.849121  1
  Li  Li592  1  0.351345  1.013456  0.150574  1
  Li  Li593  1  0.352762  1.013681  0.650395  1
  Li  Li594  1  0.353962  0.510460  0.144476  1
  Li  Li595  1  0.354130  0.512455  0.646206  1
  Li  Li596  1  0.853863  1.012397  0.145508  1
  Li  Li597  1  0.853526  1.012820  0.648274  1
  Li  Li598  1  0.853458  0.511934  0.147454  1
  Li  Li599  1  0.854042  0.514107  0.647335  1
  Li  Li600  1  0.263046  0.399194  0.353208  1
  Li  Li601  1  0.262668  0.395739  0.852939  1
  Li  Li602  1  0.262973  0.899495  0.353619  1
  Li  Li603  1  0.262744  0.897680  0.850863  1
  Li  Li604  1  0.762007  0.397730  0.351725  1
  Li  Li605  1  0.762362  0.396379  0.853341  1
  Li  Li606  1  0.762364  0.898240  0.352601  1
  Li  Li607  1  0.762703  0.898310  0.853539  1
  Li  Li608  1  0.146480  0.988222  0.146408  1
  Li  Li609  1  0.147319  0.987598  0.644339  1
  Li  Li610  1  0.144053  0.486726  0.144438  1
  Li  Li611  1  0.146314  0.488608  0.645498  1
  Li  Li612  1  0.648044  0.985614  0.147416  1
  Li  Li613  1  0.649196  0.988692  0.646807  1
  Li  Li614  1  0.646015  0.487670  0.144560  1
  Li  Li615  1  0.646612  0.488773  0.647584  1
  Li  Li616  1  0.238703  0.396052  0.145499  1
  Li  Li617  1  0.238330  0.394178  0.646063  1
  Li  Li618  1  0.237562  0.897414  0.148299  1
  Li  Li619  1  0.239324  0.895703  0.645815  1
  Li  Li620  1  0.738028  0.395748  0.147750  1
  Li  Li621  1  0.738539  0.394664  0.645275  1
  Li  Li622  1  0.736860  0.894761  0.145063  1
  Li  Li623  1  0.738615  0.897435  0.647899  1
  Li  Li624  1  0.142779  1.011626  0.356502  1
  Li  Li625  1  0.146522  1.012012  0.854392  1
  Li  Li626  1  0.146825  0.513197  0.353677  1
  Li  Li627  1  0.144745  0.510597  0.854996  1
  Li  Li628  1  0.643661  1.011284  0.355431  1
  Li  Li629  1  0.647590  1.013336  0.853803  1
  Li  Li630  1  0.645508  0.512544  0.354626  1
  Li  Li631  1  0.644407  0.511724  0.855158  1
  Li  Li632  1  0.262285  1.107200  0.144464  1
  Li  Li633  1  0.262363  1.106856  0.642772  1
  Li  Li634  1  0.261346  0.604760  0.143936  1
  Li  Li635  1  0.262092  0.605003  0.646626  1
  Li  Li636  1  0.761260  1.105494  0.146119  1
  Li  Li637  1  0.763034  1.103773  0.646282  1
  Li  Li638  1  0.761128  0.605904  0.146578  1
  Li  Li639  1  0.762002  0.608241  0.647715  1
  Li  Li640  1  0.353470  0.987158  0.355122  1
  Li  Li641  1  0.354757  0.988000  0.856302  1
  Li  Li642  1  0.354170  0.488088  0.354570  1
  Li  Li643  1  0.352856  0.486352  0.854173  1
  Li  Li644  1  0.854601  0.987501  0.352322  1
  Li  Li645  1  0.855297  0.988419  0.854907  1
  Li  Li646  1  0.852679  0.487386  0.354016  1
  Li  Li647  1  0.853972  0.488599  0.853227  1
  Li  Li648  1  0.355354  1.100622  0.237006  1
  Li  Li649  1  0.353235  1.102029  0.735865  1
  Li  Li650  1  0.351898  0.601903  0.237090  1
  Li  Li651  1  0.354405  0.602773  0.738103  1
  Li  Li652  1  0.853700  1.103745  0.239695  1
  Li  Li653  1  0.855407  1.103176  0.736457  1
  Li  Li654  1  0.854487  0.605078  0.237440  1
  Li  Li655  1  0.852662  0.601281  0.738425  1
  Li  Li656  1  0.354244  0.394409  0.261559  1
  Li  Li657  1  0.358156  0.391663  0.761690  1
  Li  Li658  1  0.354703  0.892249  0.261353  1
  Li  Li659  1  0.352878  0.895129  0.762466  1
  Li  Li660  1  0.853897  0.396098  0.262576  1
  Li  Li661  1  0.856164  0.394956  0.761267  1
  Li  Li662  1  0.854409  0.895641  0.262527  1
  Li  Li663  1  0.852381  0.897159  0.763466  1
  Li  Li664  1  0.146764  0.396695  0.237909  1
  Li  Li665  1  0.147768  0.396471  0.736578  1
  Li  Li666  1  0.146654  0.896060  0.238282  1
  Li  Li667  1  0.147417  0.896568  0.738259  1
  Li  Li668  1  0.645672  0.394866  0.236946  1
  Li  Li669  1  0.648630  0.396885  0.735888  1
  Li  Li670  1  0.644187  0.895017  0.238124  1
  Li  Li671  1  0.646006  0.896806  0.738510  1
  Li  Li672  1  0.148053  1.101418  0.262969  1
  Li  Li673  1  0.146047  1.104810  0.762834  1
  Li  Li674  1  0.144965  0.600710  0.262717  1
  Li  Li675  1  0.148233  0.603372  0.762637  1
  Li  Li676  1  0.648135  1.102917  0.261619  1
  Li  Li677  1  0.646340  1.104177  0.762457  1
  Li  Li678  1  0.647140  0.605820  0.262082  1
  Li  Li679  1  0.645807  0.604726  0.762078  1
  Li  Li680  1  0.236839  0.351370  1.103028  1
  Li  Li681  1  0.237214  0.353481  0.603704  1
  Li  Li682  1  0.236442  0.851147  0.101381  1
  Li  Li683  1  0.237829  0.853027  0.604058  1
  Li  Li684  1  0.736297  0.353482  0.102773  1
  Li  Li685  1  0.737811  0.355826  0.602619  1
  Li  Li686  1  0.737585  0.853541  1.104425  1
  Li  Li687  1  0.737057  0.854457  0.602635  1
  Li  Li688  1  0.353797  0.262556  0.393011  1
  Li  Li689  1  0.357047  0.261594  0.894242  1
  Li  Li690  1  0.351088  0.762394  0.394853  1
  Li  Li691  1  0.352578  0.763068  0.896796  1
  Li  Li692  1  0.852707  0.261904  0.396742  1
  Li  Li693  1  0.852438  0.263052  0.894106  1
  Li  Li694  1  0.851848  0.763313  0.394460  1
  Li  Li695  1  0.855742  0.761955  0.895474  1
  Li  Li696  1  0.263107  0.144724  1.107357  1
  Li  Li697  1  0.262417  0.145907  0.603282  1
  Li  Li698  1  0.261223  0.644034  0.104792  1
  Li  Li699  1  0.262695  0.646626  0.605731  1
  Li  Li700  1  0.761671  0.145894  0.106225  1
  Li  Li701  1  0.763266  0.146685  0.603479  1
  Li  Li702  1  0.761159  0.646673  1.105209  1
  Li  Li703  1  0.760716  0.646210  0.607101  1
  Li  Li704  1  0.145552  0.239546  0.394119  1
  Li  Li705  1  0.143967  0.238312  0.896266  1
  Li  Li706  1  0.144686  0.738412  0.397063  1
  Li  Li707  1  0.148874  0.736418  0.898385  1
  Li  Li708  1  0.646373  0.236488  0.396369  1
  Li  Li709  1  0.647977  0.237962  0.895169  1
  Li  Li710  1  0.644387  0.737929  0.395709  1
  Li  Li711  1  0.645183  0.738287  0.895058  1
  Li  Li712  1  0.237955  0.142197  0.395256  1
  Li  Li713  1  0.238562  0.145756  0.896613  1
  Li  Li714  1  0.238215  0.645450  0.394950  1
  Li  Li715  1  0.239132  0.645562  0.899435  1
  Li  Li716  1  0.736795  0.146355  0.398994  1
  Li  Li717  1  0.738481  0.147192  0.893477  1
  Li  Li718  1  0.737901  0.646143  0.395875  1
  Li  Li719  1  0.737132  0.647596  0.896269  1
  Li  Li720  1  0.145957  0.262130  1.104141  1
  Li  Li721  1  0.146988  0.262021  0.601840  1
  Li  Li722  1  0.147189  0.762762  0.103490  1
  Li  Li723  1  0.147925  0.762954  0.603979  1
  Li  Li724  1  0.646177  0.262307  0.103489  1
  Li  Li725  1  0.645247  0.262529  0.603587  1
  Li  Li726  1  0.647543  0.763022  1.100021  1
  Li  Li727  1  0.645919  0.761234  0.604674  1
  Li  Li728  1  0.262330  0.353657  0.398127  1
  Li  Li729  1  0.263206  0.352303  0.894615  1
  Li  Li730  1  0.261544  0.851158  0.396811  1
  Li  Li731  1  0.264249  0.851869  0.900042  1
  Li  Li732  1  0.761407  0.355545  0.395960  1
  Li  Li733  1  0.763712  0.353413  0.896859  1
  Li  Li734  1  0.763439  0.853550  0.397349  1
  Li  Li735  1  0.762763  0.853030  0.900955  1
  Li  Li736  1  0.355772  0.237484  1.102759  1
  Li  Li737  1  0.353886  0.237364  0.599688  1
  Li  Li738  1  0.352511  0.736532  0.101916  1
  Li  Li739  1  0.354739  0.737943  0.604238  1
  Li  Li740  1  0.851825  0.237985  0.103203  1
  Li  Li741  1  0.853263  0.238273  0.601362  1
  Li  Li742  1  0.853775  0.737121  1.101615  1
  Li  Li743  1  0.854132  0.739662  0.603577  1
  Li  Li744  1  0.356254  0.352713  0.988215  1
  Li  Li745  1  0.354310  0.357757  0.487694  1
  Li  Li746  1  0.354079  0.857065  0.987837  1
  Li  Li747  1  0.357390  0.856031  0.489364  1
  Li  Li748  1  0.854142  0.354195  0.987861  1
  Li  Li749  1  0.853356  0.354931  0.487519  1
  Li  Li750  1  0.853826  0.855041  0.988237  1
  Li  Li751  1  0.855461  0.854685  0.488424  1
  Li  Li752  1  0.354623  0.145824  1.013316  1
  Li  Li753  1  0.352462  0.150104  0.513686  1
  Li  Li754  1  0.353407  0.646197  1.011453  1
  Li  Li755  1  0.353795  0.646912  0.513035  1
  Li  Li756  1  0.852153  0.146674  1.012461  1
  Li  Li757  1  0.855926  0.145583  0.511468  1
  Li  Li758  1  0.854813  0.642629  1.013186  1
  Li  Li759  1  0.852334  0.647626  0.512552  1
  Li  Li760  1  0.146770  0.148375  0.986831  1
  Li  Li761  1  0.148157  0.146006  0.486930  1
  Li  Li762  1  0.147506  0.647263  0.988206  1
  Li  Li763  1  0.145444  0.648563  0.487256  1
  Li  Li764  1  0.647166  0.146237  0.987461  1
  Li  Li765  1  0.646319  0.145387  0.486803  1
  Li  Li766  1  0.646763  0.645640  0.987132  1
  Li  Li767  1  0.647194  0.646325  0.488249  1
  Li  Li768  1  0.145702  0.352676  1.011377  1
  Li  Li769  1  0.147658  0.354269  0.512483  1
  Li  Li770  1  0.145456  0.854566  1.011896  1
  Li  Li771  1  0.146579  0.851910  0.513083  1
  Li  Li772  1  0.649079  0.349934  1.013444  1
  Li  Li773  1  0.643881  0.356379  0.511536  1
  Li  Li774  1  0.643189  0.854179  1.011689  1
  Li  Li775  1  0.646152  0.854503  0.512116  1
