# generated using pymatgen
data_Cs4KRb4Na12Li12PSe4SI
_symmetry_space_group_name_H-M   'P 1'
_cell_length_a   10.14134979
_cell_length_b   10.14134979
_cell_length_c   10.14134979
_cell_angle_alpha   90.00000000
_cell_angle_beta   90.00000000
_cell_angle_gamma   90.00000000
_symmetry_Int_Tables_number   1
_chemical_formula_structural   Cs4KRb4Na12Li12PSe4SI
_chemical_formula_sum   'Cs16 K4 Rb16 Na48 Li48 P4 Se16 S4 I4'
_cell_volume   1043.00715480
_cell_formula_units_Z   4
loop_
 _symmetry_equiv_pos_site_id
 _symmetry_equiv_pos_as_xyz
  1  'x, y, z'
loop_
 _atom_site_type_symbol
 _atom_site_label
 _atom_site_symmetry_multiplicity
 _atom_site_fract_x
 _atom_site_fract_y
 _atom_site_fract_z
 _atom_site_occupancy
  I  I0  1  0.000000  0.000000  0.000000  1
  I  I1  1  0.000000  0.500000  0.500000  1
  I  I2  1  0.500000  0.000000  0.500000  1
  I  I3  1  0.500000  0.500000  0.000000  1
  S  S4  1  0.750000  0.250000  0.250000  1
  S  S5  1  0.250000  0.250000  0.750000  1
  S  S6  1  0.250000  0.750000  0.250000  1
  S  S7  1  0.750000  0.750000  0.750000  1
  Se  Se8  1  0.118240  0.118240  0.381760  1
  Se  Se9  1  0.118240  0.881760  0.618240  1
  Se  Se10  1  0.881760  0.881760  0.381760  1
  Se  Se11  1  0.881760  0.118240  0.618240  1
  Se  Se12  1  0.381760  0.118240  0.118240  1
  Se  Se13  1  0.118240  0.618240  0.881760  1
  Se  Se14  1  0.618240  0.881760  0.118240  1
  Se  Se15  1  0.881760  0.381760  0.881760  1
  Se  Se16  1  0.381760  0.881760  0.881760  1
  Se  Se17  1  0.881760  0.618240  0.118240  1
  Se  Se18  1  0.618240  0.118240  0.881760  1
  Se  Se19  1  0.118240  0.381760  0.118240  1
  Se  Se20  1  0.381760  0.618240  0.618240  1
  Se  Se21  1  0.618240  0.381760  0.618240  1
  Se  Se22  1  0.381760  0.381760  0.381760  1
  Se  Se23  1  0.618240  0.618240  0.381760  1
  P  P24  1  0.500000  0.000000  0.000000  1
  P  P25  1  0.000000  0.500000  0.000000  1
  P  P26  1  0.000000  0.000000  0.500000  1
  P  P27  1  0.500000  0.500000  0.500000  1
  Cs  Cs28  1  0.900000  0.900000  0.600000  1
  Cs  Cs29  1  0.900000  0.100000  0.400000  1
  Cs  Cs30  1  0.100000  0.100000  0.600000  1
  Cs  Cs31  1  0.100000  0.900000  0.400000  1
  Cs  Cs32  1  0.600000  0.900000  0.900000  1
  Cs  Cs33  1  0.900000  0.400000  0.100000  1
  Cs  Cs34  1  0.400000  0.100000  0.900000  1
  Cs  Cs35  1  0.100000  0.600000  0.100000  1
  Cs  Cs36  1  0.600000  0.100000  0.100000  1
  Cs  Cs37  1  0.100000  0.400000  0.900000  1
  Cs  Cs38  1  0.400000  0.900000  0.100000  1
  Cs  Cs39  1  0.900000  0.600000  0.900000  1
  Cs  Cs40  1  0.600000  0.400000  0.400000  1
  Cs  Cs41  1  0.400000  0.600000  0.400000  1
  Cs  Cs42  1  0.600000  0.600000  0.600000  1
  Cs  Cs43  1  0.400000  0.400000  0.600000  1
  Na  Na44  1  0.230000  0.930000  0.070000  1
  Na  Na45  1  0.930000  0.770000  0.930000  1
  Na  Na46  1  0.770000  0.070000  0.070000  1
  Na  Na47  1  0.070000  0.230000  0.930000  1
  Na  Na48  1  0.230000  0.070000  0.930000  1
  Na  Na49  1  0.070000  0.770000  0.070000  1
  Na  Na50  1  0.770000  0.930000  0.930000  1
  Na  Na51  1  0.930000  0.230000  0.070000  1
  Na  Na52  1  0.930000  0.070000  0.230000  1
  Na  Na53  1  0.930000  0.930000  0.770000  1
  Na  Na54  1  0.070000  0.070000  0.770000  1
  Na  Na55  1  0.070000  0.930000  0.230000  1
  Na  Na56  1  0.230000  0.430000  0.570000  1
  Na  Na57  1  0.930000  0.270000  0.430000  1
  Na  Na58  1  0.770000  0.570000  0.570000  1
  Na  Na59  1  0.070000  0.730000  0.430000  1
  Na  Na60  1  0.230000  0.570000  0.430000  1
  Na  Na61  1  0.070000  0.270000  0.570000  1
  Na  Na62  1  0.770000  0.430000  0.430000  1
  Na  Na63  1  0.930000  0.730000  0.570000  1
  Na  Na64  1  0.930000  0.570000  0.730000  1
  Na  Na65  1  0.930000  0.430000  0.270000  1
  Na  Na66  1  0.070000  0.570000  0.270000  1
  Na  Na67  1  0.070000  0.430000  0.730000  1
  Na  Na68  1  0.730000  0.930000  0.570000  1
  Na  Na69  1  0.430000  0.770000  0.430000  1
  Na  Na70  1  0.270000  0.070000  0.570000  1
  Na  Na71  1  0.570000  0.230000  0.430000  1
  Na  Na72  1  0.730000  0.070000  0.430000  1
  Na  Na73  1  0.570000  0.770000  0.570000  1
  Na  Na74  1  0.270000  0.930000  0.430000  1
  Na  Na75  1  0.430000  0.230000  0.570000  1
  Na  Na76  1  0.430000  0.070000  0.730000  1
  Na  Na77  1  0.430000  0.930000  0.270000  1
  Na  Na78  1  0.570000  0.070000  0.270000  1
  Na  Na79  1  0.570000  0.930000  0.730000  1
  Na  Na80  1  0.730000  0.430000  0.070000  1
  Na  Na81  1  0.430000  0.270000  0.930000  1
  Na  Na82  1  0.270000  0.570000  0.070000  1
  Na  Na83  1  0.570000  0.730000  0.930000  1
  Na  Na84  1  0.730000  0.570000  0.930000  1
  Na  Na85  1  0.570000  0.270000  0.070000  1
  Na  Na86  1  0.270000  0.430000  0.930000  1
  Na  Na87  1  0.430000  0.730000  0.070000  1
  Na  Na88  1  0.430000  0.570000  0.230000  1
  Na  Na89  1  0.430000  0.430000  0.770000  1
  Na  Na90  1  0.570000  0.570000  0.770000  1
  Na  Na91  1  0.570000  0.430000  0.230000  1
  K  K92  1  0.250000  0.250000  0.250000  1
  K  K93  1  0.250000  0.750000  0.750000  1
  K  K94  1  0.750000  0.750000  0.250000  1
  K  K95  1  0.750000  0.250000  0.750000  1
  Rb  Rb96  1  0.150000  0.150000  0.150000  1
  Rb  Rb97  1  0.150000  0.850000  0.850000  1
  Rb  Rb98  1  0.850000  0.850000  0.150000  1
  Rb  Rb99  1  0.850000  0.150000  0.850000  1
  Rb  Rb100  1  0.150000  0.650000  0.650000  1
  Rb  Rb101  1  0.150000  0.350000  0.350000  1
  Rb  Rb102  1  0.850000  0.350000  0.650000  1
  Rb  Rb103  1  0.850000  0.650000  0.350000  1
  Rb  Rb104  1  0.650000  0.150000  0.650000  1
  Rb  Rb105  1  0.650000  0.850000  0.350000  1
  Rb  Rb106  1  0.350000  0.850000  0.650000  1
  Rb  Rb107  1  0.350000  0.150000  0.350000  1
  Rb  Rb108  1  0.650000  0.650000  0.150000  1
  Rb  Rb109  1  0.650000  0.350000  0.850000  1
  Rb  Rb110  1  0.350000  0.350000  0.150000  1
  Rb  Rb111  1  0.350000  0.650000  0.850000  1
  Li  Li112  1  0.000000  0.183000  0.183000  1
  Li  Li113  1  0.183000  0.000000  0.817000  1
  Li  Li114  1  0.000000  0.817000  0.183000  1
  Li  Li115  1  0.817000  0.000000  0.817000  1
  Li  Li116  1  0.000000  0.817000  0.817000  1
  Li  Li117  1  0.817000  0.000000  0.183000  1
  Li  Li118  1  0.000000  0.183000  0.817000  1
  Li  Li119  1  0.183000  0.000000  0.183000  1
  Li  Li120  1  0.183000  0.183000  0.000000  1
  Li  Li121  1  0.183000  0.817000  0.000000  1
  Li  Li122  1  0.817000  0.817000  0.000000  1
  Li  Li123  1  0.817000  0.183000  0.000000  1
  Li  Li124  1  0.000000  0.683000  0.683000  1
  Li  Li125  1  0.183000  0.500000  0.317000  1
  Li  Li126  1  0.000000  0.317000  0.683000  1
  Li  Li127  1  0.817000  0.500000  0.317000  1
  Li  Li128  1  0.000000  0.317000  0.317000  1
  Li  Li129  1  0.817000  0.500000  0.683000  1
  Li  Li130  1  0.000000  0.683000  0.317000  1
  Li  Li131  1  0.183000  0.500000  0.683000  1
  Li  Li132  1  0.183000  0.683000  0.500000  1
  Li  Li133  1  0.183000  0.317000  0.500000  1
  Li  Li134  1  0.817000  0.317000  0.500000  1
  Li  Li135  1  0.817000  0.683000  0.500000  1
  Li  Li136  1  0.500000  0.183000  0.683000  1
  Li  Li137  1  0.683000  0.000000  0.317000  1
  Li  Li138  1  0.500000  0.817000  0.683000  1
  Li  Li139  1  0.317000  0.000000  0.317000  1
  Li  Li140  1  0.500000  0.817000  0.317000  1
  Li  Li141  1  0.317000  0.000000  0.683000  1
  Li  Li142  1  0.500000  0.183000  0.317000  1
  Li  Li143  1  0.683000  0.000000  0.683000  1
  Li  Li144  1  0.683000  0.183000  0.500000  1
  Li  Li145  1  0.683000  0.817000  0.500000  1
  Li  Li146  1  0.317000  0.817000  0.500000  1
  Li  Li147  1  0.317000  0.183000  0.500000  1
  Li  Li148  1  0.500000  0.683000  0.183000  1
  Li  Li149  1  0.683000  0.500000  0.817000  1
  Li  Li150  1  0.500000  0.317000  0.183000  1
  Li  Li151  1  0.317000  0.500000  0.817000  1
  Li  Li152  1  0.500000  0.317000  0.817000  1
  Li  Li153  1  0.317000  0.500000  0.183000  1
  Li  Li154  1  0.500000  0.683000  0.817000  1
  Li  Li155  1  0.683000  0.500000  0.183000  1
  Li  Li156  1  0.683000  0.683000  0.000000  1
  Li  Li157  1  0.683000  0.317000  0.000000  1
  Li  Li158  1  0.317000  0.317000  0.000000  1
  Li  Li159  1  0.317000  0.683000  0.000000  1
