# generated using pymatgen
data_X145Li96P16(S5Cl)16
_symmetry_space_group_name_H-M   'P 1'
_cell_length_a   20.31231100
_cell_length_b   20.31233900
_cell_length_c   20.31242400
_cell_angle_alpha   90.00018617
_cell_angle_beta   90.00063749
_cell_angle_gamma   89.99892812
_symmetry_Int_Tables_number   1
_chemical_formula_structural   X145Li96P16(S5Cl)16
_chemical_formula_sum   'X290 Li192 P32 S160 Cl32'
_cell_volume   8380.71412612
_cell_formula_units_Z   2
loop_
 _symmetry_equiv_pos_site_id
 _symmetry_equiv_pos_as_xyz
  1  'x, y, z'
loop_
 _atom_site_type_symbol
 _atom_site_label
 _atom_site_symmetry_multiplicity
 _atom_site_fract_x
 _atom_site_fract_y
 _atom_site_fract_z
 _atom_site_occupancy
  Li  Li1  1  0.044783  0.360264  0.217460  1
  Li  Li2  1  0.979963  0.151873  0.667932  1
  Li  Li3  1  0.010682  0.602884  0.404369  1
  Li  Li4  1  0.963689  0.635237  0.728276  1
  Li  Li5  1  0.729409  0.037402  0.355235  1
  Li  Li6  1  0.599791  0.173258  0.761940  1
  Li  Li7  1  0.711440  0.618059  0.274884  1
  Li  Li8  1  0.748489  0.395700  0.765230  1
  Li  Li9  1  0.202042  0.212636  0.395802  1
  Li  Li10  1  0.104070  0.110806  0.994645  1
  Li  Li11  1  0.225212  0.383969  0.211934  1
  Li  Li12  1  0.343999  0.493124  0.852718  1
  Li  Li13  1  0.615181  0.212317  0.279729  1
  Li  Li14  1  0.678642  0.011048  0.832095  1
  Li  Li15  1  0.539828  0.480225  0.614527  1
  Li  Li16  1  0.410889  0.912330  0.988411  1
  Li  Li17  1  0.338569  0.983417  0.345143  1
  Li  Li18  1  0.324583  0.932111  0.694279  1
  Li  Li19  1  0.156968  0.500289  0.179174  1
  Li  Li20  1  0.330133  0.492101  0.667001  1
  Li  Li21  1  0.589824  0.018339  0.408457  1
  Li  Li22  1  0.524636  0.089512  0.914594  1
  Li  Li23  1  0.658143  0.749022  0.405285  1
  Li  Li24  1  0.588491  0.421320  0.027005  1
  Li  Li25  1  0.964512  0.279762  0.377096  1
  Li  Li26  1  0.018946  0.163300  0.843774  1
  Li  Li27  1  0.088706  0.663348  0.277285  1
  Li  Li28  1  0.159578  0.738612  0.901133  1
  Li  Li29  1  0.639534  0.054447  0.263037  1
  Li  Li30  1  0.794617  0.110178  0.736733  1
  Li  Li31  1  0.531369  0.602131  0.443056  1
  Li  Li32  1  0.852779  0.839803  0.992867  1
  Li  Li33  1  0.226185  0.100455  0.265558  1
  Li  Li34  1  0.021989  0.832373  0.150900  1
  Li  Li35  1  0.131378  0.718239  0.449564  1
  Li  Li36  1  0.016318  0.843423  0.665816  1
  Li  Li37  1  0.732510  0.194452  0.388800  1
  Li  Li38  1  0.682417  0.307861  0.934986  1
  Li  Li39  1  0.843731  0.758513  0.402928  1
  Li  Li40  1  0.520049  0.603127  0.921219  1
  Li  Li41  1  0.085851  0.166733  0.253816  1
  Li  Li42  1  0.046451  0.028364  0.892115  1
  Li  Li43  1  0.150397  0.504645  0.343974  1
  Li  Li44  1  0.884365  0.723468  0.205004  1
  Li  Li45  1  0.509597  0.137850  0.352486  1
  Li  Li46  1  0.845442  0.003712  0.655996  1
  Li  Li47  1  0.665818  0.499230  0.337656  1
  Li  Li48  1  0.696838  0.519834  0.863045  1
  Li  Li49  1  0.159151  0.588580  0.760100  1
  Li  Li50  1  0.119668  0.546622  0.479654  1
  Li  Li51  1  0.153857  0.893009  0.237947  1
  Li  Li52  1  0.030639  0.045865  0.381312  1
  Li  Li53  1  0.662599  0.266655  0.086528  1
  Li  Li54  1  0.602518  0.351773  0.726779  1
  Li  Li55  1  0.548474  0.652657  0.278358  1
  Li  Li56  1  0.700986  0.895517  0.716056  1
  Li  Li57  1  0.169083  0.270097  0.084956  1
  Li  Li58  1  0.173575  0.184889  0.558958  1
  Li  Li59  1  0.316468  0.722172  0.944737  1
  Li  Li60  1  0.163826  0.910204  0.734917  1
  Li  Li61  1  0.722932  0.148274  0.933530  1
  Li  Li62  1  0.511870  0.339116  0.629659  1
  Li  Li63  1  0.526347  0.830649  0.150462  1
  Li  Li64  1  0.537457  0.861287  0.701779  1
  Li  Li65  1  0.203213  0.521874  0.873637  1
  Li  Li66  1  0.209833  0.350228  0.534516  1
  Li  Li67  1  0.217654  0.964265  0.142451  1
  Li  Li68  1  0.117211  0.866236  0.514130  1
  Li  Li69  1  0.532722  0.368276  0.203911  1
  Li  Li70  1  0.630314  0.295241  0.525764  1
  Li  Li71  1  0.546106  0.968428  0.111222  1
  Li  Li72  1  0.655441  0.739451  0.578033  1
  Li  Li73  1  0.086719  0.419189  0.024282  1
  Li  Li74  1  0.858725  0.287212  0.482269  1
  Li  Li75  1  0.070985  0.971222  0.098142  1
  Li  Li76  1  0.114261  0.984561  0.615584  1
  Li  Li77  1  0.468535  0.316489  0.347677  1
  Li  Li78  1  0.655451  0.592316  0.753188  1
  Li  Li79  1  0.738494  0.838360  0.090385  1
  Li  Li80  1  0.584670  0.739426  0.833140  1
  Li  Li81  1  0.359914  0.485779  0.318271  1
  Li  Li82  1  0.995051  0.594215  0.597237  1
  Li  Li83  1  0.977778  0.855707  0.348067  1
  Li  Li84  1  0.260146  0.896334  0.846936  1
  Li  Li85  1  0.792422  0.530758  0.141458  1
  Li  Li86  1  0.591166  0.427653  0.499847  1
  Li  Li87  1  0.641745  0.766269  0.025010  1
  Li  Li88  1  0.546575  0.881448  0.531453  1
  Li  Li89  1  0.243858  0.151638  0.917837  1
  Li  Li90  1  0.162487  0.429391  0.726053  1
  Li  Li91  1  0.355920  0.019780  0.197877  1
  Li  Li92  1  0.143997  0.752406  0.608219  1
  Li  Li93  1  0.657162  0.498313  0.171751  1
  Li  Li94  1  0.695862  0.478380  0.642662  1
  Li  Li95  1  0.655368  0.903550  0.230883  1
  Li  Li96  1  0.923984  0.314935  0.698175  1
  Li  Li97  1  0.362243  0.223278  0.034479  1
  Li  Li98  1  0.477478  0.185770  0.640181  1
  Li  Li99  1  0.396989  0.639327  0.242685  1
  Li  Li100  1  0.305257  0.611611  0.740696  1
  Li  Li101  1  0.902447  0.196836  0.208760  1
  Li  Li102  1  0.646352  0.156301  0.482020  1
  Li  Li103  1  0.987236  0.651182  0.149094  1
  Li  Li104  1  0.850103  0.507970  0.675143  1
  Li  Li105  1  0.298017  0.876295  0.282473  1
  Li  Li106  1  0.383584  0.126996  0.742588  1
  Li  Li107  1  0.160677  0.639750  0.996771  1
  Li  Li108  1  0.485483  0.668473  0.662605  1
  Li  Li109  1  0.705866  0.975970  0.128353  1
  Li  Li110  1  0.908024  0.092283  0.514677  1
  Li  Li111  1  0.868345  0.696050  0.032683  1
  Li  Li112  1  0.843795  0.695538  0.540457  1
  Li  Li113  1  0.484060  0.107626  0.082415  1
  Li  Li114  1  0.449772  0.046654  0.601248  1
  Li  Li115  1  0.398173  0.733545  0.139500  1
  Li  Li116  1  0.240399  0.642333  0.450964  1
  Li  Li117  1  0.989537  0.109811  0.104720  1
  Li  Li118  1  0.022763  0.402634  0.588962  1
  Li  Li119  1  0.756054  0.668293  0.099003  1
  Li  Li120  1  0.792874  0.619495  0.713612  1
  Li  Li121  1  0.173073  0.999479  0.344131  1
  Li  Li122  1  0.353234  0.994916  0.836117  1
  Li  Li123  1  0.267231  0.657382  0.096347  1
  Li  Li124  1  0.421435  0.343699  0.769297  1
  Li  Li125  1  0.870893  0.205180  0.038702  1
  Li  Li126  1  0.745068  0.841849  0.572053  1
  Li  Li127  1  0.739404  0.669864  0.916671  1
  Li  Li128  1  0.880415  0.541192  0.537186  1
  Li  Li129  1  0.409072  0.397629  0.996772  1
  Li  Li130  1  0.271576  0.078131  0.665799  1
  Li  Li131  1  0.489414  0.613289  0.114493  1
  Li  Li132  1  0.401517  0.588711  0.520663  1
  Li  Li133  1  0.758688  0.147663  0.080036  1
  Li  Li134  1  0.766109  0.172129  0.580606  1
  Li  Li135  1  0.012299  0.580712  0.913921  1
  Li  Li136  1  0.893505  0.737042  0.665719  1
  Li  Li137  1  0.256821  0.151835  0.085866  1
  Li  Li138  1  0.315679  0.139120  0.521711  1
  Li  Li139  1  0.250587  0.833347  0.086593  1
  Li  Li140  1  0.237907  0.843164  0.593513  1
  Li  Li141  1  0.888226  0.040383  0.031177  1
  Li  Li142  1  0.102578  0.268333  0.682558  1
  Li  Li143  1  0.224598  0.602287  0.296790  1
  Li  Li144  1  0.716500  0.638388  0.469536  1
  Li  Li145  1  0.847939  0.588371  0.246146  1
  Li  Li146  1  0.284263  0.386861  0.797170  1
  Li  Li147  1  0.283101  0.691737  0.601156  1
  Li  Li148  1  0.143414  0.844355  0.005927  1
  Li  Li149  1  0.835316  0.474027  0.353336  1
  Li  Li150  1  0.152410  0.243819  0.914338  1
  Li  Li151  1  0.781034  0.107295  0.214347  1
  Li  Li152  1  0.845593  0.996116  0.842895  1
  Li  Li153  1  0.250628  0.400199  0.351135  1
  Li  Li154  1  0.368497  0.260583  0.893291  1
  Li  Li155  1  0.385768  0.942736  0.474789  1
  Li  Li156  1  0.413497  0.777291  0.825523  1
  Li  Li157  1  0.736819  0.339800  0.588415  1
  Li  Li158  1  0.919475  0.411181  0.981244  1
  Li  Li159  1  0.888758  0.989677  0.384795  1
  Li  Li160  1  0.956837  0.780885  0.855362  1
  Li  Li161  1  0.333487  0.265777  0.419298  1
  Li  Li162  1  0.151540  0.097591  0.764778  1
  Li  Li163  1  0.354375  0.786646  0.483364  1
  Li  Li164  1  0.842999  0.492133  0.837248  1
  Li  Li165  1  0.977054  0.414519  0.420657  1
  Li  Li166  1  0.843332  0.269475  0.910876  1
  Li  Li167  1  0.759069  0.857692  0.422002  1
  Li  Li168  1  0.751959  0.826064  0.899465  1
  Li  Li169  1  0.402364  0.417629  0.486180  1
  Li  Li170  1  0.413769  0.238976  0.176696  1
  Li  Li171  1  0.251190  0.837837  0.418054  1
  Li  Li172  1  0.384086  0.547358  0.035008  1
  Li  Li173  1  0.762057  0.338901  0.408332  1
  Li  Li174  1  0.996667  0.347079  0.842595  1
  Li  Li175  1  0.799619  0.895882  0.284245  1
  Li  Li176  1  0.845858  0.893710  0.756846  1
  Li  Li177  1  0.331315  0.244505  0.599093  1
  Li  Li178  1  0.272809  0.349626  0.956638  1
  Li  Li179  1  0.483887  0.893615  0.384606  1
  Li  Li180  1  0.598814  0.911600  0.998535  1
  Li  Li181  1  0.730807  0.392502  0.229746  1
  Li  Li182  1  0.805192  0.329976  0.064480  1
  Li  Li183  1  0.905432  0.897964  0.489368  1
  Li  Li184  1  0.857334  0.007324  0.178252  1
  Li  Li185  1  0.326600  0.515935  0.170354  1
  Li  Li186  1  0.479378  0.439575  0.886047  1
  Li  Li187  1  0.404081  0.763150  0.340310  1
  Li  Li188  1  0.204121  0.028086  0.865594  1
  Li  Li189  1  0.896141  0.355278  0.270638  1
  Li  Li190  1  0.926743  0.522828  0.095316  1
  Li  Li191  1  0.145093  0.749338  0.107101  1
  Li  Li192  1  0.669785  0.036664  0.679222  1
  Cl  Cl193  1  0.373981  0.615895  0.635101  1
  Cl  Cl194  1  0.129189  0.616646  0.881754  1
  Cl  Cl195  1  0.630811  0.855809  0.615215  1
  Cl  Cl196  1  0.883193  0.377957  0.874434  1
  Cl  Cl197  1  0.374107  0.137386  0.122652  1
  Cl  Cl198  1  0.365920  0.376352  0.378625  1
  Cl  Cl199  1  0.632698  0.629193  0.370415  1
  Cl  Cl200  1  0.130254  0.382747  0.135625  1
  Cl  Cl201  1  0.129714  0.369971  0.629982  1
  Cl  Cl202  1  0.629695  0.627198  0.865268  1
  Cl  Cl203  1  0.863656  0.870896  0.873135  1
  Cl  Cl204  1  0.130747  0.112886  0.352378  1
  Cl  Cl205  1  0.630149  0.116365  0.863677  1
  Cl  Cl206  1  0.634366  0.383033  0.134807  1
  Cl  Cl207  1  0.870470  0.117186  0.628871  1
  Cl  Cl208  1  0.372900  0.882692  0.876405  1
  Cl  Cl209  1  0.009096  0.031221  0.011935  1
  Cl  Cl210  1  0.971638  0.001705  0.472428  1
  Cl  Cl211  1  0.997675  0.495432  0.003395  1
  Cl  Cl212  1  0.000113  0.510966  0.505185  1
  Cl  Cl213  1  0.505139  0.998565  0.004432  1
  Cl  Cl214  1  0.498938  0.977341  0.480848  1
  Cl  Cl215  1  0.488018  0.495303  0.994301  1
  Cl  Cl216  1  0.492140  0.503288  0.506566  1
  Cl  Cl217  1  0.993459  0.257086  0.258856  1
  Cl  Cl218  1  0.003829  0.251297  0.756683  1
  Cl  Cl219  1  0.000224  0.740860  0.229466  1
  Cl  Cl220  1  0.978469  0.752419  0.742188  1
  Cl  Cl221  1  0.507410  0.260694  0.251332  1
  Cl  Cl222  1  0.511459  0.267027  0.724976  1
  Cl  Cl223  1  0.475146  0.737280  0.239430  1
  Cl  Cl224  1  0.502919  0.756827  0.748077  1
  S  S225  1  0.253507  0.984393  0.255653  1
  S  S226  1  0.254088  0.994944  0.762684  1
  S  S227  1  0.245838  0.488787  0.264006  1
  S  S228  1  0.254822  0.503160  0.766069  1
  S  S229  1  0.745268  0.997603  0.240296  1
  S  S230  1  0.766050  0.994510  0.746798  1
  S  S231  1  0.750549  0.507664  0.252667  1
  S  S232  1  0.751736  0.510539  0.751769  1
  S  S233  1  0.249619  0.239255  0.997815  1
  S  S234  1  0.254264  0.241362  0.501336  1
  S  S235  1  0.222769  0.742053  0.011779  1
  S  S236  1  0.236234  0.754936  0.507941  1
  S  S237  1  0.757356  0.243552  0.003046  1
  S  S238  1  0.738562  0.253378  0.496201  1
  S  S239  1  0.760308  0.754694  0.003381  1
  S  S240  1  0.744655  0.752788  0.490057  1
  S  S241  1  0.439216  0.209064  0.420643  1
  S  S242  1  0.451166  0.193650  0.953444  1
  S  S243  1  0.431089  0.689816  0.444862  1
  S  S244  1  0.438877  0.700923  0.925595  1
  S  S245  1  0.942781  0.196976  0.463015  1
  S  S246  1  0.944920  0.199039  0.940354  1
  S  S247  1  0.930028  0.685306  0.450390  1
  S  S248  1  0.943192  0.684469  0.936789  1
  S  S249  1  0.191794  0.050486  0.060691  1
  S  S250  1  0.198240  0.057666  0.566943  1
  S  S251  1  0.195425  0.555771  0.076287  1
  S  S252  1  0.210353  0.572308  0.552567  1
  S  S253  1  0.685802  0.057179  0.041245  1
  S  S254  1  0.694428  0.069527  0.560282  1
  S  S255  1  0.699221  0.557239  0.068176  1
  S  S256  1  0.672709  0.554691  0.545946  1
  S  S257  1  0.312965  0.045331  0.447172  1
  S  S258  1  0.306724  0.051669  0.939593  1
  S  S259  1  0.322448  0.546806  0.436689  1
  S  S260  1  0.297524  0.561214  0.948524  1
  S  S261  1  0.807698  0.069213  0.441856  1
  S  S262  1  0.810762  0.058797  0.937999  1
  S  S263  1  0.803537  0.557503  0.445801  1
  S  S264  1  0.794897  0.558758  0.932530  1
  S  S265  1  0.059798  0.204182  0.062071  1
  S  S266  1  0.055553  0.200770  0.585125  1
  S  S267  1  0.059428  0.678184  0.054631  1
  S  S268  1  0.058223  0.687707  0.551643  1
  S  S269  1  0.567178  0.196415  0.065599  1
  S  S270  1  0.551853  0.203223  0.545747  1
  S  S271  1  0.555080  0.679972  0.038492  1
  S  S272  1  0.554081  0.678185  0.547570  1
  S  S273  1  0.128010  0.123293  0.880311  1
  S  S274  1  0.130878  0.617366  0.381723  1
  S  S275  1  0.630703  0.123271  0.363784  1
  S  S276  1  0.434806  0.451048  0.210651  1
  S  S277  1  0.445724  0.441932  0.693611  1
  S  S278  1  0.449176  0.935541  0.184919  1
  S  S279  1  0.453651  0.953711  0.679008  1
  S  S280  1  0.945428  0.441080  0.195772  1
  S  S281  1  0.950220  0.438746  0.687658  1
  S  S282  1  0.958345  0.938143  0.177030  1
  S  S283  1  0.943296  0.940678  0.696500  1
  S  S284  1  0.184888  0.305787  0.303254  1
  S  S285  1  0.194241  0.306598  0.811487  1
  S  S286  1  0.195555  0.805794  0.310409  1
  S  S287  1  0.187806  0.810210  0.805110  1
  S  S288  1  0.697257  0.300276  0.305903  1
  S  S289  1  0.681871  0.303759  0.806766  1
  S  S290  1  0.695967  0.819228  0.311134  1
  S  S291  1  0.680317  0.809834  0.800031  1
  S  S292  1  0.310384  0.302581  0.195189  1
  S  S293  1  0.316171  0.308634  0.704732  1
  S  S294  1  0.308299  0.798703  0.190614  1
  S  S295  1  0.310355  0.806826  0.687840  1
  S  S296  1  0.815260  0.310998  0.189454  1
  S  S297  1  0.800728  0.315946  0.695017  1
  S  S298  1  0.806068  0.813954  0.190491  1
  S  S299  1  0.796103  0.812301  0.684261  1
  S  S300  1  0.053128  0.436393  0.316839  1
  S  S301  1  0.069028  0.439041  0.805465  1
  S  S302  1  0.061599  0.943742  0.307642  1
  S  S303  1  0.066067  0.943541  0.808099  1
  S  S304  1  0.566289  0.439544  0.301532  1
  S  S305  1  0.568482  0.441205  0.804562  1
  S  S306  1  0.564654  0.951011  0.304313  1
  S  S307  1  0.584323  0.952564  0.774081  1
  S  S308  1  0.135165  0.870816  0.122739  1
  S  S309  1  0.126058  0.869099  0.627994  1
  S  S310  1  0.619349  0.385448  0.611367  1
  S  S311  1  0.628116  0.881736  0.112886  1
  S  S312  1  0.191061  0.188647  0.188495  1
  S  S313  1  0.199347  0.188100  0.695756  1
  S  S314  1  0.190466  0.680366  0.201169  1
  S  S315  1  0.205898  0.683577  0.696714  1
  S  S316  1  0.696579  0.192758  0.184024  1
  S  S317  1  0.702843  0.183596  0.693349  1
  S  S318  1  0.681780  0.702046  0.194156  1
  S  S319  1  0.692730  0.686186  0.685535  1
  S  S320  1  0.432593  0.053619  0.298357  1
  S  S321  1  0.456369  0.056878  0.811609  1
  S  S322  1  0.459997  0.568993  0.323326  1
  S  S323  1  0.447734  0.550029  0.822810  1
  S  S324  1  0.942259  0.056158  0.293778  1
  S  S325  1  0.949561  0.059415  0.814604  1
  S  S326  1  0.934447  0.551250  0.322189  1
  S  S327  1  0.945693  0.550094  0.811636  1
  S  S328  1  0.067957  0.059780  0.187654  1
  S  S329  1  0.057364  0.060973  0.691157  1
  S  S330  1  0.054933  0.562810  0.207801  1
  S  S331  1  0.060214  0.561034  0.695483  1
  S  S332  1  0.551381  0.063602  0.184583  1
  S  S333  1  0.553406  0.085476  0.680888  1
  S  S334  1  0.561226  0.565191  0.195886  1
  S  S335  1  0.553106  0.565632  0.695180  1
  S  S336  1  0.296243  0.186497  0.315867  1
  S  S337  1  0.310904  0.186300  0.817814  1
  S  S338  1  0.308757  0.687231  0.314261  1
  S  S339  1  0.313822  0.704154  0.817353  1
  S  S340  1  0.816665  0.186461  0.297443  1
  S  S341  1  0.810934  0.199380  0.815386  1
  S  S342  1  0.804717  0.693850  0.303467  1
  S  S343  1  0.803551  0.699784  0.806412  1
  S  S344  1  0.373148  0.132486  0.626877  1
  S  S345  1  0.375164  0.619198  0.128711  1
  S  S346  1  0.869038  0.118411  0.122826  1
  S  S347  1  0.869924  0.624515  0.133853  1
  S  S348  1  0.883235  0.619802  0.632404  1
  S  S349  1  0.188694  0.445316  0.449401  1
  S  S350  1  0.189691  0.437992  0.958982  1
  S  S351  1  0.186356  0.940154  0.449934  1
  S  S352  1  0.190909  0.935972  0.941853  1
  S  S353  1  0.693724  0.434665  0.436427  1
  S  S354  1  0.687277  0.438164  0.954336  1
  S  S355  1  0.689349  0.954668  0.440599  1
  S  S356  1  0.696936  0.936657  0.929231  1
  S  S357  1  0.442931  0.307452  0.071431  1
  S  S358  1  0.429031  0.312365  0.548635  1
  S  S359  1  0.446861  0.808226  0.055162  1
  S  S360  1  0.448913  0.807362  0.560737  1
  S  S361  1  0.936627  0.312974  0.057370  1
  S  S362  1  0.935777  0.315457  0.575803  1
  S  S363  1  0.944561  0.793691  0.058689  1
  S  S364  1  0.934224  0.801972  0.566011  1
  S  S365  1  0.053774  0.317073  0.462367  1
  S  S366  1  0.059325  0.320778  0.946156  1
  S  S367  1  0.044553  0.805467  0.440480  1
  S  S368  1  0.056654  0.799285  0.934932  1
  S  S369  1  0.550578  0.326925  0.436801  1
  S  S370  1  0.559647  0.324225  0.957845  1
  S  S371  1  0.553896  0.802583  0.435657  1
  S  S372  1  0.563595  0.807417  0.937852  1
  S  S373  1  0.316736  0.444207  0.065547  1
  S  S374  1  0.306742  0.435819  0.560081  1
  S  S375  1  0.310302  0.939622  0.061599  1
  S  S376  1  0.308679  0.933919  0.564986  1
  S  S377  1  0.822997  0.449456  0.054534  1
  S  S378  1  0.797748  0.447139  0.567596  1
  S  S379  1  0.806909  0.942912  0.055125  1
  S  S380  1  0.807166  0.945914  0.554959  1
  S  S381  1  0.372971  0.377875  0.881211  1
  S  S382  1  0.366004  0.868141  0.383816  1
  S  S383  1  0.876206  0.363951  0.384539  1
  S  S384  1  0.867405  0.874003  0.379674  1
  P  P385  1  0.250796  0.993520  0.999664  1
  P  P386  1  0.250564  0.994333  0.507654  1
  P  P387  1  0.249930  0.498832  0.012986  1
  P  P388  1  0.258020  0.501221  0.500336  1
  P  P389  1  0.748962  0.997876  0.990319  1
  P  P390  1  0.749816  0.009697  0.500573  1
  P  P391  1  0.750952  0.500626  0.002219  1
  P  P392  1  0.741504  0.498096  0.499783  1
  P  P393  1  0.249016  0.247149  0.251009  1
  P  P394  1  0.255622  0.247109  0.757718  1
  P  P395  1  0.250666  0.743652  0.252968  1
  P  P396  1  0.253861  0.754983  0.752852  1
  P  P397  1  0.757719  0.247972  0.244093  1
  P  P398  1  0.750419  0.249906  0.753819  1
  P  P399  1  0.746107  0.756823  0.248277  1
  P  P400  1  0.742015  0.750017  0.746102  1
  P  P401  1  0.006357  0.999336  0.241048  1
  P  P402  1  0.004236  0.999443  0.753255  1
  P  P403  1  0.996221  0.499086  0.261144  1
  P  P404  1  0.006509  0.494996  0.751160  1
  P  P405  1  0.498388  0.000209  0.244030  1
  P  P406  1  0.511504  0.012221  0.738446  1
  P  P407  1  0.504719  0.505379  0.257297  1
  P  P408  1  0.503503  0.500255  0.755378  1
  P  P409  1  0.000164  0.258898  0.000375  1
  P  P410  1  0.999380  0.257479  0.522049  1
  P  P411  1  0.003576  0.739458  0.996314  1
  P  P412  1  0.991166  0.746019  0.503266  1
  P  P413  1  0.507907  0.255992  0.011477  1
  P  P414  1  0.492866  0.261861  0.487997  1
  P  P415  1  0.499470  0.749367  0.990772  1
  P  P416  1  0.497309  0.745957  0.498466  1
  X0+  X417  1  0.012195  0.414634  0.585366  1
  X0+  X418  1  0.085366  0.024390  0.414634  1
  X0+  X419  1  0.012195  0.414634  0.097561  1
  X0+  X420  1  0.024390  0.829268  0.158537  1
  X0+  X421  1  0.353659  0.780488  0.951220  1
  X0+  X422  1  0.390244  0.951220  0.951220  1
  X0+  X423  1  0.414634  0.975610  0.902439  1
  X0+  X424  1  0.536585  0.195122  0.853659  1
  X0+  X425  1  0.585366  0.219512  0.829268  1
  X0+  X426  1  0.402439  0.512195  0.097561  1
  X0+  X427  1  0.341463  0.487805  0.146341  1
  X0+  X428  1  0.243902  0.585366  0.146341  1
  X0+  X429  1  0.341463  0.585366  0.243902  1
  X0+  X430  1  0.146341  0.487805  0.158537  1
  X0+  X431  1  0.219512  0.390244  0.219512  1
  X0+  X432  1  0.268293  0.390244  0.268293  1
  X0+  X433  1  0.341463  0.634146  0.012195  1
  X0+  X434  1  0.341463  0.731707  0.097561  1
  X0+  X435  1  0.390244  0.731707  0.146341  1
  X0+  X436  1  0.085366  0.902439  0.024390  1
  X0+  X437  1  0.146341  0.829268  0.000000  1
  X0+  X438  1  0.195122  0.804878  0.926829  1
  X0+  X439  1  0.146341  0.000000  0.146341  1
  X0+  X440  1  0.170732  0.975610  0.146341  1
  X0+  X441  1  0.097561  0.975610  0.097561  1
  X0+  X442  1  0.146341  0.890244  0.243902  1
  X0+  X443  1  0.170732  0.902439  0.219512  1
  X0+  X444  1  0.195122  0.878049  0.219512  1
  X0+  X445  1  0.243902  0.841463  0.097561  1
  X0+  X446  1  0.243902  0.902439  0.146341  1
  X0+  X447  1  0.146341  0.756098  0.097561  1
  X0+  X448  1  0.487805  0.853659  0.365854  1
  X0+  X449  1  0.487805  0.878049  0.390244  1
  X0+  X450  1  0.341463  0.841463  0.487805  1
  X0+  X451  1  0.341463  0.902439  0.256098  1
  X0+  X452  1  0.280488  0.780488  0.390244  1
  X0+  X453  1  0.243902  0.829268  0.414634  1
  X0+  X454  1  0.256098  0.902439  0.341463  1
  X0+  X455  1  0.268293  0.951220  0.365854  1
  X0+  X456  1  0.402439  0.975610  0.414634  1
  X0+  X457  1  0.341463  0.000000  0.341463  1
  X0+  X458  1  0.097561  0.585366  0.487805  1
  X0+  X459  1  0.121951  0.536585  0.463415  1
  X0+  X460  1  0.012195  0.609756  0.390244  1
  X0+  X461  1  0.024390  0.658537  0.341463  1
  X0+  X462  1  0.097561  0.634146  0.243902  1
  X0+  X463  1  0.146341  0.585366  0.268293  1
  X0+  X464  1  0.146341  0.707317  0.463415  1
  X0+  X465  1  0.170732  0.658537  0.463415  1
  X0+  X466  1  0.097561  0.707317  0.292683  1
  X0+  X467  1  0.097561  0.731707  0.341463  1
  X0+  X468  1  0.146341  0.731707  0.390244  1
  X0+  X469  1  0.243902  0.646341  0.414634  1
  X0+  X470  1  0.243902  0.585366  0.341463  1
  X0+  X471  1  0.146341  0.512195  0.341463  1
  X0+  X472  1  0.341463  0.658537  0.487805  1
  X0+  X473  1  0.146341  -0.008130  0.642276  1
  X0+  X474  1  0.256098  0.658537  0.585366  1
  X0+  X475  1  0.158537  0.902439  0.731707  1
  X0+  X476  1  0.073171  0.853659  0.731707  1
  X0+  X477  1  0.000000  0.902439  0.609756  1
  X0+  X478  1  0.024390  0.902439  0.585366  1
  X0+  X479  1  0.024390  0.829268  0.658537  1
  X0+  X480  1  0.109756  0.756098  0.634146  1
  X0+  X481  1  0.158537  0.756098  0.585366  1
  X0+  X482  1  0.097561  0.902439  0.512195  1
  X0+  X483  1  0.170732  0.829268  0.512195  1
  X0+  X484  1  0.243902  0.829268  0.585366  1
  X0+  X485  1  0.243902  0.902439  0.658537  1
  X0+  X486  1  0.414634  0.756098  0.341463  1
  X0+  X487  1  0.341463  0.487805  0.341463  1
  X0+  X488  1  0.390244  0.780488  0.780488  1
  X0+  X489  1  0.414634  0.829268  0.756098  1
  X0+  X490  1  0.414634  0.658537  0.731707  1
  X0+  X491  1  0.487805  0.390244  0.890244  1
  X0+  X492  1  0.268293  0.902439  0.829268  1
  X0+  X493  1  0.341463  0.951220  0.780488  1
  X0+  X494  1  0.341463  0.000000  0.646341  1
  X0+  X495  1  0.463415  0.097561  0.560976  1
  X0+  X496  1  0.487805  0.097561  0.609756  1
  X0+  X497  1  0.390244  0.048780  0.536585  1
  X0+  X498  1  0.341463  0.158537  0.512195  1
  X0+  X499  1  0.292683  0.121951  0.707317  1
  X0+  X500  1  0.341463  0.097561  0.731707  1
  X0+  X501  1  0.268293  0.097561  0.658537  1
  X0+  X502  1  0.390244  0.146341  0.731707  1
  X0+  X503  1  0.463415  0.121951  0.707317  1
  X0+  X504  1  0.243902  0.146341  0.585366  1
  X0+  X505  1  0.268293  0.219512  0.609756  1
  X0+  X506  1  0.341463  0.243902  0.585366  1
  X0+  X507  1  0.390244  0.243902  0.658537  1
  X0+  X508  1  0.170732  0.487805  0.658537  1
  X0+  X509  1  0.243902  0.414634  0.658537  1
  X0+  X510  1  0.170732  0.341463  0.512195  1
  X0+  X511  1  0.243902  0.341463  0.585366  1
  X0+  X512  1  0.170732  0.414634  0.731707  1
  X0+  X513  1  0.097561  0.146341  0.756098  1
  X0+  X514  1  0.146341  0.097561  0.756098  1
  X0+  X515  1  0.097561  0.097561  0.975610  1
  X0+  X516  1  0.146341  0.146341  0.975610  1
  X0+  X517  1  0.207317  0.219512  0.878049  1
  X0+  X518  1  0.243902  0.158537  0.902439  1
  X0+  X519  1  0.146341  0.243902  0.902439  1
  X0+  X520  1  0.146341  0.000000  0.829268  1
  X0+  X521  1  0.195122  0.024390  0.853659  1
  X0+  X522  1  0.243902  0.073171  0.829268  1
  X0+  X523  1  0.097561  0.024390  0.902439  1
  X0+  X524  1  0.341463  0.158537  0.000000  1
  X0+  X525  1  0.390244  0.524390  0.536585  1
  X0+  X526  1  0.414634  0.512195  0.585366  1
  X0+  X527  1  0.341463  0.487805  0.658537  1
  X0+  X528  1  0.256098  0.341463  0.902439  1
  X0+  X529  1  0.341463  0.256098  0.902439  1
  X0+  X530  1  0.390244  0.268293  0.853659  1
  X0+  X531  1  0.414634  0.268293  0.829268  1
  X0+  X532  1  0.390244  0.487805  0.890244  1
  X0+  X533  1  0.341463  0.487805  0.829268  1
  X0+  X534  1  0.268293  0.463415  0.853659  1
  X0+  X535  1  0.402439  0.341463  0.756098  1
  X0+  X536  1  0.341463  0.414634  0.756098  1
  X0+  X537  1  0.097561  0.658537  0.756098  1
  X0+  X538  1  0.170732  0.585366  0.756098  1
  X0+  X539  1  0.170732  0.512195  0.829268  1
  X0+  X540  1  0.073171  0.731707  0.829268  1
  X0+  X541  1  0.341463  0.341463  0.000000  1
  X0+  X542  1  0.835366  0.152439  0.012195  1
  X0+  X543  1  0.890244  0.243902  0.146341  1
  X0+  X544  1  0.841463  0.243902  0.097561  1
  X0+  X545  1  0.841463  0.097561  0.243902  1
  X0+  X546  1  0.890244  0.146341  0.243902  1
  X0+  X547  1  0.756098  0.097561  0.170732  1
  X0+  X548  1  0.756098  0.170732  0.097561  1
  X0+  X549  1  0.829268  0.756098  0.902439  1
  X0+  X550  1  0.829268  0.829268  0.975610  1
  X0+  X551  1  0.902439  0.902439  0.975610  1
  X0+  X552  1  0.902439  0.975610  0.902439  1
  X0+  X553  1  0.536585  0.780488  0.634146  1
  X0+  X554  1  0.585366  0.756098  0.658537  1
  X0+  X555  1  0.512195  0.829268  0.658537  1
  X0+  X556  1  0.585366  0.829268  0.731707  1
  X0+  X557  1  0.609756  0.780488  0.707317  1
  X0+  X558  1  0.512195  0.902439  0.585366  1
  X0+  X559  1  0.707317  0.780488  0.609756  1
  X0+  X560  1  0.731707  0.829268  0.585366  1
  X0+  X561  1  0.804878  0.926829  0.682927  1
  X0+  X562  1  0.829268  0.902439  0.756098  1
  X0+  X563  1  0.731707  0.902439  0.658537  1
  X0+  X564  1  0.902439  0.829268  0.756098  1
  X0+  X565  1  0.975610  0.829268  0.829268  1
  X0+  X566  1  0.658537  0.902439  0.731707  1
  X0+  X567  1  0.756098  0.902439  0.829268  1
  X0+  X568  1  0.658537  0.829268  0.487805  1
  X0+  X569  1  0.890244  0.268293  0.341463  1
  X0+  X570  1  0.951220  0.365854  0.292683  1
  X0+  X571  1  0.975610  0.609756  0.609756  1
  X0+  X572  1  0.975610  0.634146  0.634146  1
  X0+  X573  1  0.841463  0.731707  0.585366  1
  X0+  X574  1  0.902439  0.731707  0.658537  1
  X0+  X575  1  0.878049  0.536585  0.536585  1
  X0+  X576  1  0.902439  0.585366  0.512195  1
  X0+  X577  1  0.829268  0.658537  0.512195  1
  X0+  X578  1  0.829268  0.512195  0.646341  1
  X0+  X579  1  0.756098  0.585366  0.658537  1
  X0+  X580  1  0.756098  0.658537  0.585366  1
  X0+  X581  1  0.902439  0.634146  0.731707  1
  X0+  X582  1  0.646341  0.756098  0.097561  1
  X0+  X583  1  0.658537  0.829268  0.024390  1
  X0+  X584  1  0.707317  0.853659  0.024390  1
  X0+  X585  1  0.731707  0.841463  0.097561  1
  X0+  X586  1  0.731707  0.902439  0.146341  1
  X0+  X587  1  0.597561  0.975610  0.097561  1
  X0+  X588  1  0.634146  0.902439  0.243902  1
  X0+  X589  1  0.634146  0.951220  0.219512  1
  X0+  X590  1  0.585366  0.731707  0.329268  1
  X0+  X591  1  0.536585  0.878049  0.036585  1
  X0+  X592  1  0.512195  0.853659  0.146341  1
  X0+  X593  1  0.512195  0.878049  0.121951  1
  X0+  X594  1  0.536585  0.853659  0.195122  1
  X0+  X595  1  0.609756  0.780488  0.219512  1
  X0+  X596  1  0.780488  0.390244  0.780488  1
  X0+  X597  1  0.829268  0.414634  0.756098  1
  X0+  X598  1  0.829268  0.487805  0.829268  1
  X0+  X599  1  0.902439  0.487805  0.902439  1
  X0+  X600  1  0.634146  0.268293  0.585366  1
  X0+  X601  1  0.634146  0.292683  0.512195  1
  X0+  X602  1  0.585366  0.268293  0.658537  1
  X0+  X603  1  0.658537  0.243902  0.414634  1
  X0+  X604  1  0.707317  0.219512  0.390244  1
  X0+  X605  1  0.585366  0.243902  0.341463  1
  X0+  X606  1  0.658537  0.402439  0.731707  1
  X0+  X607  1  0.585366  0.487805  0.585366  1
  X0+  X608  1  0.609756  0.463415  0.536585  1
  X0+  X609  1  0.658537  0.487805  0.658537  1
  X0+  X610  1  0.707317  0.463415  0.634146  1
  X0+  X611  1  0.731707  0.390244  0.658537  1
  X0+  X612  1  0.731707  0.341463  0.585366  1
  X0+  X613  1  0.585366  0.658537  0.756098  1
  X0+  X614  1  0.658537  0.585366  0.756098  1
  X0+  X615  1  0.512195  0.585366  0.902439  1
  X0+  X616  1  0.585366  0.512195  0.902439  1
  X0+  X617  1  0.512195  0.658537  0.829268  1
  X0+  X618  1  0.658537  0.487805  0.829268  1
  X0+  X619  1  0.512195  0.097561  0.390244  1
  X0+  X620  1  0.512195  0.146341  0.341463  1
  X0+  X621  1  0.585366  0.000000  0.390244  1
  X0+  X622  1  0.634146  0.000000  0.341463  1
  X0+  X623  1  0.585366  0.097561  0.487805  1
  X0+  X624  1  0.609756  0.048780  0.463415  1
  X0+  X625  1  0.634146  0.146341  0.487805  1
  X0+  X626  1  0.731707  0.085366  0.341463  1
  X0+  X627  1  0.634146  0.097561  0.243902  1
  X0+  X628  1  0.658537  0.097561  0.268293  1
  X0+  X629  1  0.829268  0.000000  0.341463  1
  X0+  X630  1  0.853659  0.951220  0.268293  1
  X0+  X631  1  0.878049  0.951220  0.463415  1
  X0+  X632  1  0.902439  0.902439  0.487805  1
  X0+  X633  1  0.902439  0.975610  0.414634  1
  X0+  X634  1  0.829268  0.756098  0.402439  1
  X0+  X635  1  0.780488  0.780488  0.390244  1
  X0+  X636  1  0.829268  0.829268  0.487805  1
  X0+  X637  1  0.707317  0.707317  0.390244  1
  X0+  X638  1  0.731707  0.658537  0.414634  1
  X0+  X639  1  0.707317  0.536585  0.365854  1
  X0+  X640  1  0.731707  0.585366  0.341463  1
  X0+  X641  1  0.658537  0.658537  0.487805  1
  X0+  X642  1  0.585366  0.585366  0.487805  1
  X0+  X643  1  0.975610  0.853659  0.353659  1
  X0+  X644  1  0.975610  0.878049  0.390244  1
  X0+  X645  1  0.878049  0.780488  0.292683  1
  X0+  X646  1  0.902439  0.829268  0.268293  1
  X0+  X647  1  0.536585  0.536585  0.390244  1
  X0+  X648  1  0.658537  0.585366  0.243902  1
  X0+  X649  1  0.756098  0.902439  0.341463  1
  X0+  X650  1  0.512195  0.390244  0.609756  1
  X0+  X651  1  0.658537  0.658537  -0.012195  1
  X0+  X652  1  0.658537  0.731707  0.902439  1
  X0+  X653  1  0.658537  0.341463  -0.012195  1
  X0+  X654  1  0.682927  0.317073  0.926829  1
  X0+  X655  1  0.731707  0.341463  0.073171  1
  X0+  X656  1  0.658537  0.268293  0.097561  1
  X0+  X657  1  0.780488  0.268293  0.878049  1
  X0+  X658  1  0.829268  0.243902  0.902439  1
  X0+  X659  1  0.585366  0.012195  0.902439  1
  X0+  X660  1  0.731707  0.158537  0.902439  1
  X0+  X661  1  0.658537  0.085366  0.756098  1
  X0+  X662  1  0.658537  0.024390  0.829268  1
  X0+  X663  1  0.731707  0.073171  0.829268  1
  X0+  X664  1  0.658537  0.170732  0.975610  1
  X0+  X665  1  0.829268  0.585366  0.243902  1
  X0+  X666  1  0.902439  0.658537  0.219512  1
  X0+  X667  1  0.829268  0.646341  0.000000  1
  X0+  X668  1  0.780488  0.634146  0.024390  1
  X0+  X669  1  0.780488  0.512195  0.146341  1
  X0+  X670  1  0.829268  0.512195  0.146341  1
  X0+  X671  1  0.841463  0.731707  0.097561  1
  X0+  X672  1  0.756098  0.646341  0.097561  1
  X0+  X673  1  0.780488  0.707317  0.121951  1
  X0+  X674  1  0.756098  0.585366  0.146341  1
  X0+  X675  1  0.658537  0.414634  0.243902  1
  X0+  X676  1  0.731707  0.414634  0.170732  1
  X0+  X677  1  0.841463  0.487805  0.341463  1
  X0+  X678  1  0.902439  0.487805  0.390244  1
  X0+  X679  1  0.841463  0.341463  0.487805  1
  X0+  X680  1  0.829268  0.390244  0.243902  1
  X0+  X681  1  0.829268  0.414634  0.268293  1
  X0+  X682  1  0.780488  0.390244  0.268293  1
  X0+  X683  1  0.756098  0.341463  0.402439  1
  X0+  X684  1  0.731707  0.414634  0.341463  1
  X0+  X685  1  0.975610  0.414634  0.414634  1
  X0+  X686  1  0.829268  0.341463  0.000000  1
  X0+  X687  1  0.000000  0.146341  0.146341  1
  X0+  X688  1  0.341463  0.341463  0.487805  1
  X0+  X689  1  0.146341  0.170732  0.487805  1
  X0+  X690  1  0.243902  0.146341  0.390244  1
  X0+  X691  1  0.170732  0.341463  0.024390  1
  X0+  X692  1  0.170732  0.073171  0.268293  1
  X0+  X693  1  0.756098  0.170732  0.585366  1
  X0+  X694  1  0.487805  0.097561  0.097561  1
  X0+  X695  1  0.902439  0.000000  0.097561  1
  X0+  X696  1  0.097561  0.268293  0.658537  1
  X0+  X697  1  0.170732  0.658537  0.975610  1
  X0+  X698  1  0.024390  0.585366  0.902439  1
  X0+  X699  1  0.097561  0.268293  0.170732  1
  X0+  X700  1  0.975610  0.585366  0.097561  1
  X0+  X701  1  0.512195  0.341463  0.146341  1
  X0+  X702  1  0.975610  0.341463  0.829268  1
  X0+  X703  1  0.902439  0.170732  0.731707  1
  X0+  X704  1  0.902439  0.243902  0.658537  1
  X0+  X705  1  0.975610  0.097561  0.585366  1
  X0+  X706  1  0.390244  0.219512  0.219512  1
