# generated using pymatgen
data_X291Li192P32(S5I)32
_symmetry_space_group_name_H-M   'P 1'
_cell_length_a   20.43300000
_cell_length_b   20.43300000
_cell_length_c   20.43300000
_cell_angle_alpha   90.00000000
_cell_angle_beta   90.00000000
_cell_angle_gamma   90.00000000
_symmetry_Int_Tables_number   1
_chemical_formula_structural   X291Li192P32(S5I)32
_chemical_formula_sum   'X291 Li192 P32 S160 I32'
_cell_volume   8530.93052274
_cell_formula_units_Z   1
loop_
 _symmetry_equiv_pos_site_id
 _symmetry_equiv_pos_as_xyz
  1  'x, y, z'
loop_
 _atom_site_type_symbol
 _atom_site_label
 _atom_site_symmetry_multiplicity
 _atom_site_fract_x
 _atom_site_fract_y
 _atom_site_fract_z
 _atom_site_occupancy
  Li  Li1  1  0.088460  0.918077  0.983615  1
  Li  Li2  1  0.987939  0.983885  0.387426  1
  Li  Li3  1  0.978363  0.519388  0.112989  1
  Li  Li4  1  0.115320  0.483628  0.520092  1
  Li  Li5  1  0.582033  0.919701  0.012010  1
  Li  Li6  1  0.512256  0.981216  0.612454  1
  Li  Li7  1  0.582925  0.496668  0.084000  1
  Li  Li8  1  0.576124  0.584400  0.496199  1
  Li  Li9  1  0.353712  0.525804  0.219089  1
  Li  Li10  1  0.331975  0.417360  0.753688  1
  Li  Li11  1  0.166921  0.918510  0.234445  1
  Li  Li12  1  0.330537  0.995451  0.831914  1
  Li  Li13  1  0.840987  0.579924  0.253935  1
  Li  Li14  1  0.864525  0.516686  0.729731  1
  Li  Li15  1  0.834960  0.010173  0.172280  1
  Li  Li16  1  0.769287  0.888366  0.773793  1
  Li  Li17  1  0.999154  0.337862  0.171692  1
  Li  Li18  1  0.982939  0.224988  0.639089  1
  Li  Li19  1  0.927969  0.740503  0.168822  1
  Li  Li20  1  0.950654  0.732198  0.646152  1
  Li  Li21  1  0.574578  0.327231  0.249863  1
  Li  Li22  1  0.498766  0.335807  0.675716  1
  Li  Li23  1  0.498913  0.835163  0.167149  1
  Li  Li24  1  0.611695  0.768298  0.730796  1
  Li  Li25  1  0.292140  0.475699  0.352701  1
  Li  Li26  1  0.170457  0.581983  0.758043  1
  Li  Li27  1  0.227912  0.109670  0.261086  1
  Li  Li28  1  0.162306  0.007089  0.670544  1
  Li  Li29  1  0.670831  0.425047  0.241069  1
  Li  Li30  1  0.760093  0.428090  0.829545  1
  Li  Li31  1  0.666920  0.990682  0.331854  1
  Li  Li32  1  0.733432  0.115086  0.759055  1
  Li  Li33  1  0.003337  0.165342  0.328694  1
  Li  Li34  1  0.984192  0.271401  0.864088  1
  Li  Li35  1  0.082612  0.760703  0.339145  1
  Li  Li36  1  0.075585  0.755005  0.840311  1
  Li  Li37  1  0.415530  0.160571  0.247023  1
  Li  Li38  1  0.495939  0.162095  0.831683  1
  Li  Li39  1  0.501886  0.665454  0.331131  1
  Li  Li40  1  0.387814  0.770023  0.771615  1
  Li  Li41  1  0.976173  0.470662  0.397628  1
  Li  Li42  1  0.918315  0.412130  0.006410  1
  Li  Li43  1  0.912720  0.085988  0.492640  1
  Li  Li44  1  0.978136  0.911835  0.079696  1
  Li  Li45  1  0.583792  0.419461  0.504207  1
  Li  Li46  1  0.503579  0.386098  0.011449  1
  Li  Li47  1  0.471618  0.890868  0.481355  1
  Li  Li48  1  0.416619  0.914659  0.000711  1
  Li  Li49  1  0.002119  0.170704  0.162856  1
  Li  Li50  1  0.082268  0.170327  0.758925  1
  Li  Li51  1  0.020333  0.637198  0.273884  1
  Li  Li52  1  0.016796  0.637967  0.772668  1
  Li  Li53  1  0.501841  0.249887  0.136997  1
  Li  Li54  1  0.502022  0.166420  0.669819  1
  Li  Li55  1  0.505666  0.668661  0.161425  1
  Li  Li56  1  0.503279  0.664883  0.828053  1
  Li  Li57  1  0.357583  0.229107  0.530457  1
  Li  Li58  1  0.232179  0.138683  0.977758  1
  Li  Li59  1  0.274150  0.705768  0.607237  1
  Li  Li60  1  0.364607  0.730822  0.016764  1
  Li  Li61  1  0.729821  0.139429  0.478113  1
  Li  Li62  1  0.740530  0.171466  0.093316  1
  Li  Li63  1  0.714907  0.641834  0.494760  1
  Li  Li64  1  0.730897  0.637630  0.984109  1
  Li  Li65  1  0.987549  0.327312  0.334478  1
  Li  Li66  1  0.921957  0.338957  0.742978  1
  Li  Li67  1  0.913715  0.747609  0.331396  1
  Li  Li68  1  0.023080  0.864416  0.735243  1
  Li  Li69  1  0.477817  0.265017  0.366208  1
  Li  Li70  1  0.489422  0.335614  0.833548  1
  Li  Li71  1  0.495592  0.830379  0.330587  1
  Li  Li72  1  0.489683  0.831152  0.663731  1
  Li  Li73  1  0.514984  0.018563  0.391856  1
  Li  Li74  1  0.497253  0.994847  0.890521  1
  Li  Li75  1  0.486172  0.479562  0.384825  1
  Li  Li76  1  0.587349  0.493109  0.918899  1
  Li  Li77  1  0.076621  0.086956  0.492310  1
  Li  Li78  1  0.977679  0.968349  0.896950  1
  Li  Li79  1  0.026532  0.610448  0.472911  1
  Li  Li80  1  0.084553  0.420797  0.009664  1
  Li  Li81  1  0.411655  0.080703  0.995250  1
  Li  Li82  1  0.390782  0.032674  0.520940  1
  Li  Li83  1  0.414688  0.503342  0.923843  1
  Li  Li84  1  0.421401  0.413377  0.504857  1
  Li  Li85  1  0.893845  0.032369  0.021267  1
  Li  Li86  1  0.087465  0.930807  0.508013  1
  Li  Li87  1  0.990612  0.471061  0.890668  1
  Li  Li88  1  0.885899  0.520293  0.516541  1
  Li  Li89  1  0.583407  0.080355  0.996753  1
  Li  Li90  1  0.533470  0.113436  0.496646  1
  Li  Li91  1  0.524402  0.612703  0.987726  1
  Li  Li92  1  0.415137  0.580696  0.499074  1
  Li  Li93  1  0.032100  0.108490  0.975719  1
  Li  Li94  1  0.923380  0.915492  0.502558  1
  Li  Li95  1  0.078089  0.583098  0.999619  1
  Li  Li96  1  0.988366  0.537392  0.612330  1
  Li  Li97  1  0.330938  0.911731  0.246299  1
  Li  Li98  1  0.232839  0.889497  0.740683  1
  Li  Li99  1  0.228300  0.617048  0.273236  1
  Li  Li100  1  0.272177  0.518701  0.638402  1
  Li  Li101  1  0.735882  0.114032  0.264199  1
  Li  Li102  1  0.777320  0.013225  0.638875  1
  Li  Li103  1  0.771410  0.520834  0.134775  1
  Li  Li104  1  0.744034  0.585168  0.663306  1
  Li  Li105  1  0.168304  0.002714  0.343288  1
  Li  Li106  1  0.258933  0.117134  0.737853  1
  Li  Li107  1  0.241499  0.395355  0.215463  1
  Li  Li108  1  0.258569  0.489625  0.866450  1
  Li  Li109  1  0.746744  0.888796  0.222990  1
  Li  Li110  1  0.724055  0.014360  0.865100  1
  Li  Li111  1  0.743916  0.504166  0.361746  1
  Li  Li112  1  0.748886  0.581961  0.830581  1
  Li  Li113  1  0.333150  0.251465  0.917772  1
  Li  Li114  1  0.272666  0.361425  0.474260  1
  Li  Li115  1  0.247950  0.834317  0.079766  1
  Li  Li116  1  0.357913  0.763620  0.471876  1
  Li  Li117  1  0.861823  0.232681  0.023720  1
  Li  Li118  1  0.831771  0.251013  0.417226  1
  Li  Li119  1  0.834395  0.745618  0.920129  1
  Li  Li120  1  0.729689  0.727881  0.385280  1
  Li  Li121  1  0.169796  0.255360  0.081047  1
  Li  Li122  1  0.132081  0.276061  0.507794  1
  Li  Li123  1  0.249295  0.664603  0.919787  1
  Li  Li124  1  0.136863  0.768375  0.516345  1
  Li  Li125  1  0.634150  0.262856  0.010183  1
  Li  Li126  1  0.668064  0.261541  0.585513  1
  Li  Li127  1  0.672651  0.754556  0.083412  1
  Li  Li128  1  0.748844  0.769222  0.613103  1
  Li  Li129  1  0.417902  0.340177  0.242149  1
  Li  Li130  1  0.384193  0.235913  0.735383  1
  Li  Li131  1  0.384785  0.733366  0.232051  1
  Li  Li132  1  0.498787  0.668838  0.665716  1
  Li  Li133  1  0.883166  0.235851  0.230922  1
  Li  Li134  1  0.914270  0.164549  0.760544  1
  Li  Li135  1  0.079578  0.750621  0.166902  1
  Li  Li136  1  0.901065  0.768330  0.788724  1
  Li  Li137  1  0.084203  0.016404  0.089081  1
  Li  Li138  1  0.981589  0.026500  0.613088  1
  Li  Li139  1  0.914203  0.581155  0.989320  1
  Li  Li140  1  0.000167  0.390794  0.540328  1
  Li  Li141  1  0.477147  0.022905  0.113250  1
  Li  Li142  1  0.615002  0.968881  0.513263  1
  Li  Li143  1  0.414528  0.507891  0.077483  1
  Li  Li144  1  0.501266  0.497283  0.613969  1
  Li  Li145  1  0.330021  0.011436  0.342442  1
  Li  Li146  1  0.331302  0.001297  0.669054  1
  Li  Li147  1  0.168593  0.509039  0.163900  1
  Li  Li148  1  0.336703  0.586630  0.756285  1
  Li  Li149  1  0.834184  0.000615  0.328482  1
  Li  Li150  1  0.863786  0.994140  0.777407  1
  Li  Li151  1  0.667656  0.584782  0.246642  1
  Li  Li152  1  0.637202  0.483032  0.736618  1
  Li  Li153  1  0.112375  0.261854  0.242814  1
  Li  Li154  1  0.081087  0.321789  0.741196  1
  Li  Li155  1  0.982194  0.863365  0.262868  1
  Li  Li156  1  0.092167  0.744880  0.669894  1
  Li  Li157  1  0.574540  0.165200  0.256595  1
  Li  Li158  1  0.611273  0.248511  0.772033  1
  Li  Li159  1  0.613952  0.758432  0.239344  1
  Li  Li160  1  0.506675  0.830426  0.836672  1
  Li  Li161  1  0.268926  0.365992  0.998884  1
  Li  Li162  1  0.228015  0.278708  0.612212  1
  Li  Li163  1  0.136848  0.745022  0.996593  1
  Li  Li164  1  0.244172  0.827076  0.407772  1
  Li  Li165  1  0.757207  0.325190  0.921534  1
  Li  Li166  1  0.770130  0.363655  0.484999  1
  Li  Li167  1  0.772696  0.866155  0.988165  1
  Li  Li168  1  0.781687  0.854773  0.468002  1
  Li  Li169  1  0.152141  0.497112  0.327402  1
  Li  Li170  1  0.172088  0.426344  0.743711  1
  Li  Li171  1  0.274710  0.019267  0.143124  1
  Li  Li172  1  0.171209  0.007088  0.839182  1
  Li  Li173  1  0.830077  0.416309  0.252359  1
  Li  Li174  1  0.752432  0.413737  0.669871  1
  Li  Li175  1  0.662743  0.004271  0.168487  1
  Li  Li176  1  0.640285  0.976768  0.726938  1
  Li  Li177  1  0.328827  0.239319  0.081132  1
  Li  Li178  1  0.223805  0.142171  0.497386  1
  Li  Li179  1  0.245418  0.671334  0.090615  1
  Li  Li180  1  0.254348  0.843603  0.580339  1
  Li  Li181  1  0.746167  0.337630  0.083752  1
  Li  Li182  1  0.822186  0.241918  0.586196  1
  Li  Li183  1  0.826715  0.740208  0.076638  1
  Li  Li184  1  0.855432  0.712796  0.511692  1
  Li  Li185  1  0.241169  0.237397  0.385651  1
  Li  Li186  1  0.165493  0.261672  0.916683  1
  Li  Li187  1  0.233671  0.649864  0.460011  1
  Li  Li188  1  0.255190  0.826365  0.914491  1
  Li  Li189  1  0.661904  0.261239  0.416458  1
  Li  Li190  1  0.746850  0.171733  0.920912  1
  Li  Li191  1  0.637174  0.781040  0.517346  1
  Li  Li192  1  0.664287  0.755136  0.916474  1
  I  I193  1  0.133329  0.133100  0.374593  1
  I  I194  1  0.128829  0.130965  0.880830  1
  I  I195  1  0.124016  0.628737  0.375076  1
  I  I196  1  0.121505  0.629943  0.876730  1
  I  I197  1  0.623278  0.121770  0.380834  1
  I  I198  1  0.627296  0.123809  0.868210  1
  I  I199  1  0.630269  0.628126  0.375205  1
  I  I200  1  0.626102  0.624352  0.880510  1
  I  I201  1  0.381107  0.374195  0.377125  1
  I  I202  1  0.366517  0.381132  0.881852  1
  I  I203  1  0.372531  0.877898  0.378716  1
  I  I204  1  0.378650  0.872869  0.871877  1
  I  I205  1  0.866470  0.381620  0.380531  1
  I  I206  1  0.881875  0.373802  0.874862  1
  I  I207  1  0.884364  0.879451  0.372263  1
  I  I208  1  0.868384  0.878795  0.875220  1
  I  I209  1  0.373692  0.116954  0.123445  1
  I  I210  1  0.369815  0.129965  0.631730  1
  I  I211  1  0.375484  0.633763  0.127628  1
  I  I212  1  0.375953  0.619270  0.626641  1
  I  I213  1  0.871347  0.134010  0.127145  1
  I  I214  1  0.875441  0.120050  0.627872  1
  I  I215  1  0.875434  0.617632  0.122818  1
  I  I216  1  0.875001  0.620553  0.622405  1
  I  I217  1  0.126444  0.376171  0.133650  1
  I  I218  1  0.124630  0.375529  0.616007  1
  I  I219  1  0.117637  0.875971  0.115830  1
  I  I220  1  0.126793  0.873885  0.630022  1
  I  I221  1  0.614285  0.366386  0.119785  1
  I  I222  1  0.620699  0.383461  0.631976  1
  I  I223  1  0.628283  0.873863  0.135096  1
  I  I224  1  0.619931  0.874817  0.624886  1
  S  S225  1  0.051899  0.431065  0.313117  1
  S  S226  1  0.063209  0.429664  0.802213  1
  S  S227  1  0.061343  0.947136  0.299522  1
  S  S228  1  0.065178  0.947596  0.812141  1
  S  S229  1  0.560766  0.441424  0.296571  1
  S  S230  1  0.553290  0.441711  0.814256  1
  S  S231  1  0.554687  0.939572  0.314449  1
  S  S232  1  0.554703  0.939148  0.803984  1
  S  S233  1  0.440084  0.057727  0.311238  1
  S  S234  1  0.436319  0.055030  0.807980  1
  S  S235  1  0.445665  0.557200  0.301077  1
  S  S236  1  0.436269  0.560696  0.819002  1
  S  S237  1  0.943720  0.061352  0.307090  1
  S  S238  1  0.950534  0.062686  0.820300  1
  S  S239  1  0.943365  0.552843  0.314479  1
  S  S240  1  0.949339  0.547120  0.808394  1
  S  S241  1  0.441706  0.447744  0.181949  1
  S  S242  1  0.437115  0.443207  0.699839  1
  S  S243  1  0.440884  0.940219  0.194226  1
  S  S244  1  0.434859  0.939806  0.690012  1
  S  S245  1  0.936920  0.439618  0.194128  1
  S  S246  1  0.949265  0.444327  0.681946  1
  S  S247  1  0.941707  0.949605  0.189778  1
  S  S248  1  0.947238  0.950684  0.700278  1
  S  S249  1  0.062030  0.070317  0.192554  1
  S  S250  1  0.060452  0.067811  0.695650  1
  S  S251  1  0.056801  0.551140  0.198597  1
  S  S252  1  0.067636  0.556597  0.696186  1
  S  S253  1  0.555829  0.056826  0.197408  1
  S  S254  1  0.553894  0.055111  0.692661  1
  S  S255  1  0.563148  0.561566  0.183934  1
  S  S256  1  0.551465  0.559946  0.702504  1
  S  S257  1  0.298450  0.062687  0.448275  1
  S  S258  1  0.308050  0.051961  0.937964  1
  S  S259  1  0.314945  0.563167  0.432376  1
  S  S260  1  0.307035  0.562482  0.949532  1
  S  S261  1  0.809551  0.059484  0.434118  1
  S  S262  1  0.800365  0.065217  0.946980  1
  S  S263  1  0.795509  0.564083  0.451906  1
  S  S264  1  0.805404  0.553766  0.936504  1
  S  S265  1  0.303109  0.454726  0.073800  1
  S  S266  1  0.312243  0.445084  0.551129  1
  S  S267  1  0.309384  0.936039  0.056971  1
  S  S268  1  0.308748  0.947414  0.560555  1
  S  S269  1  0.808692  0.437736  0.054240  1
  S  S270  1  0.802498  0.447452  0.564645  1
  S  S271  1  0.807744  0.955317  0.065883  1
  S  S272  1  0.814442  0.938330  0.550218  1
  S  S273  1  0.199157  0.447302  0.434516  1
  S  S274  1  0.191686  0.447134  0.954628  1
  S  S275  1  0.190988  0.935092  0.443611  1
  S  S276  1  0.196631  0.933208  0.934384  1
  S  S277  1  0.687667  0.442475  0.447256  1
  S  S278  1  0.694584  0.431574  0.933678  1
  S  S279  1  0.699264  0.935714  0.435462  1
  S  S280  1  0.688179  0.947093  0.955658  1
  S  S281  1  0.195775  0.051320  0.053867  1
  S  S282  1  0.178267  0.051304  0.557506  1
  S  S283  1  0.184829  0.570894  0.061747  1
  S  S284  1  0.200807  0.564753  0.549736  1
  S  S285  1  0.683728  0.067508  0.066793  1
  S  S286  1  0.697518  0.050375  0.552949  1
  S  S287  1  0.689828  0.547831  0.051132  1
  S  S288  1  0.676554  0.556901  0.565840  1
  S  S289  1  0.433071  0.297647  0.051255  1
  S  S290  1  0.441116  0.311424  0.568778  1
  S  S291  1  0.445976  0.811368  0.057955  1
  S  S292  1  0.436316  0.800924  0.555120  1
  S  S293  1  0.945191  0.309273  0.066637  1
  S  S294  1  0.928708  0.295851  0.557994  1
  S  S295  1  0.931588  0.801785  0.061186  1
  S  S296  1  0.927729  0.805572  0.553981  1
  S  S297  1  0.041375  0.317133  0.443848  1
  S  S298  1  0.060255  0.315776  0.948403  1
  S  S299  1  0.055092  0.819287  0.447580  1
  S  S300  1  0.049849  0.809018  0.945241  1
  S  S301  1  0.555840  0.313366  0.448692  1
  S  S302  1  0.548117  0.302520  0.936267  1
  S  S303  1  0.551931  0.807994  0.440438  1
  S  S304  1  0.565772  0.819377  0.943859  1
  S  S305  1  0.448002  0.192144  0.457834  1
  S  S306  1  0.432658  0.182886  0.932391  1
  S  S307  1  0.442328  0.685371  0.440056  1
  S  S308  1  0.453397  0.698244  0.941463  1
  S  S309  1  0.936231  0.189157  0.430912  1
  S  S310  1  0.949544  0.195620  0.950224  1
  S  S311  1  0.947050  0.693472  0.436436  1
  S  S312  1  0.939259  0.689850  0.938714  1
  S  S313  1  0.066064  0.194556  0.062516  1
  S  S314  1  0.053976  0.192410  0.548145  1
  S  S315  1  0.051839  0.690219  0.059337  1
  S  S316  1  0.050510  0.697530  0.559682  1
  S  S317  1  0.550944  0.185608  0.049204  1
  S  S318  1  0.564730  0.200574  0.570587  1
  S  S319  1  0.566902  0.699495  0.058471  1
  S  S320  1  0.561451  0.692472  0.556658  1
  S  S321  1  0.317642  0.307670  0.182380  1
  S  S322  1  0.302484  0.315195  0.696080  1
  S  S323  1  0.301189  0.812043  0.188454  1
  S  S324  1  0.301040  0.800853  0.692443  1
  S  S325  1  0.797340  0.314092  0.192219  1
  S  S326  1  0.816828  0.311271  0.689538  1
  S  S327  1  0.819139  0.798764  0.184073  1
  S  S328  1  0.818173  0.803747  0.703465  1
  S  S329  1  0.310692  0.189140  0.301771  1
  S  S330  1  0.299125  0.201035  0.812757  1
  S  S331  1  0.298154  0.705435  0.311569  1
  S  S332  1  0.305892  0.691087  0.812029  1
  S  S333  1  0.797409  0.203258  0.310587  1
  S  S334  1  0.807979  0.194917  0.810287  1
  S  S335  1  0.812252  0.685141  0.306341  1
  S  S336  1  0.812264  0.686079  0.814608  1
  S  S337  1  0.196748  0.196279  0.185482  1
  S  S338  1  0.184955  0.203440  0.696596  1
  S  S339  1  0.184576  0.696626  0.194018  1
  S  S340  1  0.190230  0.682612  0.693479  1
  S  S341  1  0.680572  0.197276  0.197821  1
  S  S342  1  0.693344  0.205397  0.694210  1
  S  S343  1  0.697408  0.687673  0.186061  1
  S  S344  1  0.697625  0.693422  0.692326  1
  S  S345  1  0.205079  0.312990  0.300315  1
  S  S346  1  0.184028  0.322351  0.810874  1
  S  S347  1  0.181900  0.820710  0.303750  1
  S  S348  1  0.186750  0.804199  0.809723  1
  S  S349  1  0.680323  0.320566  0.308919  1
  S  S350  1  0.702351  0.319985  0.809650  1
  S  S351  1  0.705165  0.806008  0.299582  1
  S  S352  1  0.693927  0.804799  0.809414  1
  S  S353  1  0.004775  0.997627  0.005459  1
  S  S354  1  0.997135  0.004239  0.500301  1
  S  S355  1  0.996949  0.498577  0.001831  1
  S  S356  1  0.000972  0.502448  0.504930  1
  S  S357  1  0.497400  0.000370  0.002757  1
  S  S358  1  0.502515  0.001478  0.502613  1
  S  S359  1  0.502384  0.500366  0.000043  1
  S  S360  1  0.498452  0.498908  0.498997  1
  S  S361  1  0.997162  0.250127  0.248770  1
  S  S362  1  0.994811  0.247633  0.751133  1
  S  S363  1  0.002181  0.750119  0.255274  1
  S  S364  1  0.006365  0.750550  0.745840  1
  S  S365  1  0.492443  0.248643  0.252020  1
  S  S366  1  0.497114  0.248857  0.753652  1
  S  S367  1  0.499400  0.748842  0.247326  1
  S  S368  1  0.499411  0.751853  0.749012  1
  S  S369  1  0.250393  0.996765  0.257513  1
  S  S370  1  0.247515  0.002825  0.749128  1
  S  S371  1  0.243461  0.504698  0.253832  1
  S  S372  1  0.255034  0.504199  0.751944  1
  S  S373  1  0.748033  0.001480  0.249360  1
  S  S374  1  0.750871  0.000684  0.752253  1
  S  S375  1  0.752898  0.504227  0.247480  1
  S  S376  1  0.751048  0.503535  0.744718  1
  S  S377  1  0.249435  0.251915  0.997354  1
  S  S378  1  0.246468  0.253644  0.500562  1
  S  S379  1  0.251023  0.748177  0.001530  1
  S  S380  1  0.248600  0.756322  0.504329  1
  S  S381  1  0.748309  0.249593  0.006998  1
  S  S382  1  0.745831  0.251732  0.497909  1
  S  S383  1  0.748234  0.751822  0.995749  1
  S  S384  1  0.746996  0.750497  0.499073  1
  P  P385  1  0.002745  0.009832  0.243583  1
  P  P386  1  0.007132  0.008675  0.757147  1
  P  P387  1  0.997480  0.492260  0.254753  1
  P  P388  1  0.008552  0.492958  0.747509  1
  P  P389  1  0.497659  0.997273  0.254383  1
  P  P390  1  0.493460  0.997372  0.748963  1
  P  P391  1  0.503777  0.502146  0.239887  1
  P  P392  1  0.492987  0.501599  0.760414  1
  P  P393  1  0.251882  0.991346  0.995724  1
  P  P394  1  0.243616  0.997458  0.502357  1
  P  P395  1  0.247171  0.509260  0.011631  1
  P  P396  1  0.258408  0.506271  0.492285  1
  P  P397  1  0.744212  0.010363  0.010409  1
  P  P398  1  0.756655  0.996414  0.491989  1
  P  P399  1  0.749586  0.491310  0.992758  1
  P  P400  1  0.739260  0.502437  0.509087  1
  P  P401  1  0.006785  0.254840  0.008254  1
  P  P402  1  0.988917  0.247298  0.493432  1
  P  P403  1  0.991746  0.747202  0.001119  1
  P  P404  1  0.995100  0.756665  0.498269  1
  P  P405  1  0.490070  0.240687  0.990792  1
  P  P406  1  0.503608  0.255801  0.512599  1
  P  P407  1  0.509011  0.758276  0.000198  1
  P  P408  1  0.498386  0.745034  0.498331  1
  P  P409  1  0.259395  0.251583  0.241745  1
  P  P410  1  0.241787  0.261493  0.756488  1
  P  P411  1  0.240944  0.759117  0.249871  1
  P  P412  1  0.243446  0.743273  0.753381  1
  P  P413  1  0.737600  0.260162  0.252700  1
  P  P414  1  0.756961  0.259044  0.751277  1
  P  P415  1  0.759828  0.742988  0.242847  1
  P  P416  1  0.755573  0.744673  0.756576  1
  X0+  X417  1  0.878049  0.487805  0.487805  1
  X0+  X418  1  0.878049  0.512195  0.512195  1
  X0+  X419  1  0.487805  0.268293  0.365854  1
  X0+  X420  1  0.512195  0.243902  0.365854  1
  X0+  X421  1  0.634146  0.768293  0.512195  1
  X0+  X422  1  0.634146  0.731707  0.487805  1
  X0+  X423  1  0.743902  0.829268  0.414634  1
  X0+  X424  1  0.853659  0.731707  0.512195  1
  X0+  X425  1  0.853659  0.756098  0.487805  1
  X0+  X426  1  0.756098  0.658537  0.585366  1
  X0+  X427  1  0.756098  0.829268  0.585366  1
  X0+  X428  1  0.585366  0.329268  0.243902  1
  X0+  X429  1  0.487805  0.243902  0.146341  1
  X0+  X430  1  0.512195  0.268293  0.146341  1
  X0+  X431  1  0.414634  0.170732  0.243902  1
  X0+  X432  1  0.585366  0.170732  0.243902  1
  X0+  X433  1  0.170732  0.658537  0.512195  1
  X0+  X434  1  0.268293  0.634146  0.512195  1
  X0+  X435  1  0.268293  0.731707  0.609756  1
  X0+  X436  1  0.219512  0.731707  0.390244  1
  X0+  X437  1  0.609756  0.731707  0.756098  1
  X0+  X438  1  0.609756  0.756098  0.731707  1
  X0+  X439  1  0.487805  0.780488  0.853659  1
  X0+  X440  1  0.487805  0.829268  0.829268  1
  X0+  X441  1  0.390244  0.731707  0.731707  1
  X0+  X442  1  0.390244  0.756098  0.756098  1
  X0+  X443  1  0.500000  0.829268  0.658537  1
  X0+  X444  1  0.487805  0.658537  0.658537  1
  X0+  X445  1  0.487805  0.731707  0.634146  1
  X0+  X446  1  0.487805  0.475610  0.390244  1
  X0+  X447  1  0.585366  0.414634  0.500000  1
  X0+  X448  1  0.414634  0.585366  0.500000  1
  X0+  X449  1  0.487805  0.512195  0.609756  1
  X0+  X450  1  0.512195  0.487805  0.609756  1
  X0+  X451  1  0.414634  0.414634  0.512195  1
  X0+  X452  1  0.743902  0.829268  0.073171  1
  X0+  X453  1  0.756098  0.829268  0.914634  1
  X0+  X454  1  0.756098  0.658537  0.914634  1
  X0+  X455  1  0.756098  0.658537  0.073171  1
  X0+  X456  1  0.853659  0.731707  0.024390  1
  X0+  X457  1  0.634146  0.731707  0.975610  1
  X0+  X458  1  -0.012195  0.756098  0.365854  1
  X0+  X459  1  0.024390  0.731707  0.365854  1
  X0+  X460  1  0.914634  0.829268  0.243902  1
  X0+  X461  1  0.914634  0.658537  0.243902  1
  X0+  X462  1  0.024390  0.756098  0.146341  1
  X0+  X463  1  0.975610  0.731707  0.146341  1
  X0+  X464  1  0.073171  0.829268  0.243902  1
  X0+  X465  1  0.073171  0.658537  0.243902  1
  X0+  X466  1  0.768293  0.609756  0.731707  1
  X0+  X467  1  0.658537  0.512195  0.658537  1
  X0+  X468  1  0.731707  0.487805  0.634146  1
  X0+  X469  1  0.829268  0.487805  0.658537  1
  X0+  X470  1  0.780488  0.487805  0.853659  1
  X0+  X471  1  0.829268  0.487805  0.829268  1
  X0+  X472  1  0.658537  0.500000  0.829268  1
  X0+  X473  1  0.658537  0.414634  0.756098  1
  X0+  X474  1  0.731707  0.390244  0.731707  1
  X0+  X475  1  0.487805  0.024390  0.609756  1
  X0+  X476  1  0.512195  0.975610  0.609756  1
  X0+  X477  1  0.390244  0.024390  0.512195  1
  X0+  X478  1  0.414634  0.073171  0.512195  1
  X0+  X479  1  0.414634  0.926829  0.487805  1
  X0+  X480  1  0.317073  0.829268  0.487805  1
  X0+  X481  1  0.170732  0.829268  0.512195  1
  X0+  X482  1  0.121951  0.487805  0.512195  1
  X0+  X483  1  0.121951  0.512195  0.487805  1
  X0+  X484  1  0.853659  0.231707  0.024390  1
  X0+  X485  1  0.768293  0.268293  0.878049  1
  X0+  X486  1  0.731707  0.146341  0.975610  1
  X0+  X487  1  0.756098  0.170732  0.902439  1
  X0+  X488  1  0.634146  0.268293  0.012195  1
  X0+  X489  1  0.634146  0.243902  0.975610  1
  X0+  X490  1  0.731707  0.365854  0.024390  1
  X0+  X491  1  0.756098  0.341463  0.073171  1
  X0+  X492  1  0.731707  0.268293  0.121951  1
  X0+  X493  1  0.365854  0.487805  0.780488  1
  X0+  X494  1  0.365854  0.512195  0.731707  1
  X0+  X495  1  0.121951  0.512195  0.756098  1
  X0+  X496  1  0.170732  0.585366  0.756098  1
  X0+  X497  1  0.243902  0.585366  0.829268  1
  X0+  X498  1  0.243902  0.487805  0.634146  1
  X0+  X499  1  0.268293  0.512195  0.634146  1
  X0+  X500  1  0.243902  0.414634  0.658537  1
  X0+  X501  1  0.243902  0.585366  0.658537  1
  X0+  X502  1  0.268293  0.390244  0.768293  1
  X0+  X503  1  0.243902  0.414634  0.829268  1
  X0+  X504  1  0.268293  0.487805  0.853659  1
  X0+  X505  1  0.853659  0.243902  0.512195  1
  X0+  X506  1  0.853659  0.268293  0.487805  1
  X0+  X507  1  0.829268  0.243902  0.585366  1
  X0+  X508  1  0.829268  0.243902  0.414634  1
  X0+  X509  1  0.756098  0.146341  0.512195  1
  X0+  X510  1  0.756098  0.170732  0.585366  1
  X0+  X511  1  0.756098  0.170732  0.414634  1
  X0+  X512  1  0.743902  0.341463  0.414634  1
  X0+  X513  1  0.756098  0.365854  0.487805  1
  X0+  X514  1  0.731707  0.341463  0.585366  1
  X0+  X515  1  0.634146  0.231707  0.487805  1
  X0+  X516  1  0.585366  0.097561  0.512195  1
  X0+  X517  1  0.365854  0.512195  0.231707  1
  X0+  X518  1  0.341463  0.487805  0.170732  1
  X0+  X519  1  0.268293  0.609756  0.231707  1
  X0+  X520  1  0.243902  0.585366  0.170732  1
  X0+  X521  1  0.146341  0.512195  0.268293  1
  X0+  X522  1  0.170732  0.512195  0.341463  1
  X0+  X523  1  0.170732  0.512195  0.170732  1
  X0+  X524  1  0.243902  0.585366  0.341463  1
  X0+  X525  1  0.219512  0.390244  0.243902  1
  X0+  X526  1  0.243902  0.414634  0.170732  1
  X0+  X527  1  0.268293  0.414634  0.341463  1
  X0+  X528  1  0.731707  0.012195  0.853659  1
  X0+  X529  1  0.658537  0.081301  0.747967  1
  X0+  X530  1  0.914634  0.756098  0.658537  1
  X0+  X531  1  0.914634  0.756098  0.829268  1
  X0+  X532  1  0.012195  0.853659  0.731707  1
  X0+  X533  1  0.975610  0.853659  0.756098  1
  X0+  X534  1  0.073171  0.756098  0.658537  1
  X0+  X535  1  0.829268  0.914634  0.756098  1
  X0+  X536  1  0.170732  0.000000  0.829268  1
  X0+  X537  1  0.219512  0.024390  0.853659  1
  X0+  X538  1  0.243902  0.073171  0.829268  1
  X0+  X539  1  0.146341  0.975610  0.731707  1
  X0+  X540  1  0.243902  0.926829  0.829268  1
  X0+  X541  1  0.243902  0.073171  0.658537  1
  X0+  X542  1  0.268293  0.121951  0.731707  1
  X0+  X543  1  0.243902  0.914634  0.658537  1
  X0+  X544  1  0.219512  0.878049  0.731707  1
  X0+  X545  1  0.365854  0.024390  0.731707  1
  X0+  X546  1  0.365854  0.975610  0.756098  1
  X0+  X547  1  0.317073  0.000000  0.658537  1
  X0+  X548  1  0.073171  0.000000  0.926829  1
  X0+  X549  1  0.658537  0.500000  0.341463  1
  X0+  X550  1  0.731707  0.609756  0.268293  1
  X0+  X551  1  0.756098  0.609756  0.243902  1
  X0+  X552  1  0.073171  0.743902  0.829268  1
  X0+  X553  1  0.012195  0.634146  0.756098  1
  X0+  X554  1  0.975610  0.634146  0.731707  1
  X0+  X555  1  0.024390  0.243902  0.853659  1
  X0+  X556  1  0.975610  0.268293  0.853659  1
  X0+  X557  1  0.829268  0.073171  0.743902  1
  X0+  X558  1  0.731707  0.975610  0.634146  1
  X0+  X559  1  0.780488  0.024390  0.634146  1
  X0+  X560  1  0.341463  0.000000  0.341463  1
  X0+  X561  1  0.365854  0.975610  0.268293  1
  X0+  X562  1  0.000000  0.902439  0.414634  1
  X0+  X563  1  0.975610  0.975610  0.390244  1
  X0+  X564  1  0.000000  0.073171  0.414634  1
  X0+  X565  1  0.073171  0.000000  0.414634  1
  X0+  X566  1  0.146341  0.024390  0.268293  1
  X0+  X567  1  0.170732  0.000000  0.341463  1
  X0+  X568  1  0.243902  0.914634  0.341463  1
  X0+  X569  1  0.268293  0.878049  0.268293  1
  X0+  X570  1  0.243902  0.073171  0.341463  1
  X0+  X571  1  0.170732  0.000000  0.170732  1
  X0+  X572  1  0.243902  0.926829  0.170732  1
  X0+  X573  1  0.243902  0.073171  0.170732  1
  X0+  X574  1  0.914634  0.170732  0.756098  1
  X0+  X575  1  0.975610  0.231707  0.634146  1
  X0+  X576  1  0.000000  0.170732  0.658537  1
  X0+  X577  1  0.902439  0.000000  0.585366  1
  X0+  X578  1  0.975610  0.024390  0.609756  1
  X0+  X579  1  0.000000  0.097561  0.585366  1
  X0+  X580  1  0.000000  0.926829  0.585366  1
  X0+  X581  1  0.073171  0.000000  0.585366  1
  X0+  X582  1  0.926829  0.902439  0.512195  1
  X0+  X583  1  0.073171  0.170732  0.756098  1
  X0+  X584  1  0.073171  0.000000  0.073171  1
  X0+  X585  1  0.609756  0.731707  0.268293  1
  X0+  X586  1  0.609756  0.756098  0.243902  1
  X0+  X587  1  0.341463  0.756098  0.926829  1
  X0+  X588  1  0.365854  0.731707  0.024390  1
  X0+  X589  1  0.243902  0.146341  0.487805  1
  X0+  X590  1  0.268293  0.146341  0.512195  1
  X0+  X591  1  0.390244  0.768293  0.268293  1
  X0+  X592  1  0.390244  0.731707  0.219512  1
  X0+  X593  1  0.487805  0.658537  0.341463  1
  X0+  X594  1  0.512195  0.634146  0.268293  1
  X0+  X595  1  0.512195  0.731707  0.365854  1
  X0+  X596  1  0.487805  0.829268  0.170732  1
  X0+  X597  1  0.512195  0.756098  0.146341  1
  X0+  X598  1  0.512195  0.658537  0.170732  1
  X0+  X599  1  0.487805  0.829268  0.317073  1
  X0+  X600  1  0.658537  0.500000  0.170732  1
  X0+  X601  1  0.878049  0.975610  0.975610  1
  X0+  X602  1  0.902439  0.000000  0.073171  1
  X0+  X603  1  0.487805  0.341463  0.658537  1
  X0+  X604  1  0.512195  0.365854  0.731707  1
  X0+  X605  1  0.487805  0.341463  0.829268  1
  X0+  X606  1  0.512195  0.414634  0.902439  1
  X0+  X607  1  0.390244  0.512195  0.024390  1
  X0+  X608  1  0.414634  0.585366  0.000000  1
  X0+  X609  1  0.487805  0.585366  0.926829  1
  X0+  X610  1  0.487805  0.585366  0.073171  1
  X0+  X611  1  0.414634  0.414634  0.000000  1
  X0+  X612  1  0.585366  0.585366  0.000000  1
  X0+  X613  1  0.609756  0.512195  0.975610  1
  X0+  X614  1  0.512195  0.414634  0.073171  1
  X0+  X615  1  0.512195  0.487805  0.121951  1
  X0+  X616  1  0.585366  0.414634  0.000000  1
  X0+  X617  1  0.829268  0.500000  0.170732  1
  X0+  X618  1  0.780488  0.512195  0.146341  1
  X0+  X619  1  0.731707  0.390244  0.243902  1
  X0+  X620  1  0.756098  0.390244  0.268293  1
  X0+  X621  1  0.829268  0.414634  0.243902  1
  X0+  X622  1  0.902439  0.341463  0.243902  1
  X0+  X623  1  0.658537  0.000000  0.329268  1
  X0+  X624  1  0.731707  0.024390  0.365854  1
  X0+  X625  1  0.829268  0.000000  0.341463  1
  X0+  X626  1  0.731707  0.878049  0.231707  1
  X0+  X627  1  0.658537  0.926829  0.243902  1
  X0+  X628  1  0.658537  0.000000  0.170732  1
  X0+  X629  1  0.756098  0.024390  0.146341  1
  X0+  X630  1  0.829268  0.000000  0.170732  1
  X0+  X631  1  0.731707  0.121951  0.268293  1
  X0+  X632  1  0.756098  0.121951  0.243902  1
  X0+  X633  1  0.829268  0.073171  0.243902  1
  X0+  X634  1  0.170732  0.243902  0.585366  1
  X0+  X635  1  0.219512  0.268293  0.609756  1
  X0+  X636  1  0.487805  0.146341  0.731707  1
  X0+  X637  1  0.487805  0.170732  0.658537  1
  X0+  X638  1  0.487805  0.170732  0.829268  1
  X0+  X639  1  0.329268  0.243902  0.585366  1
  X0+  X640  1  0.390244  0.243902  0.731707  1
  X0+  X641  1  0.414634  0.243902  0.658537  1
  X0+  X642  1  0.414634  0.243902  0.829268  1
  X0+  X643  1  0.585366  0.243902  0.658537  1
  X0+  X644  1  0.585366  0.243902  0.829268  1
  X0+  X645  1  0.073171  0.243902  0.341463  1
  X0+  X646  1  0.975610  0.268293  0.365854  1
  X0+  X647  1  0.329268  0.243902  0.414634  1
  X0+  X648  1  0.268293  0.268293  0.390244  1
  X0+  X649  1  0.170732  0.243902  0.414634  1
  X0+  X650  1  0.024390  0.146341  0.268293  1
  X0+  X651  1  0.073171  0.170732  0.243902  1
  X0+  X652  1  0.914634  0.243902  0.170732  1
  X0+  X653  1  0.024390  0.268293  0.146341  1
  X0+  X654  1  0.097561  0.243902  0.170732  1
  X0+  X655  1  0.414634  0.902439  0.000000  1
  X0+  X656  1  0.512195  0.878049  0.024390  1
  X0+  X657  1  0.414634  0.000000  0.073171  1
  X0+  X658  1  0.487805  0.024390  0.121951  1
  X0+  X659  1  0.414634  0.000000  0.926829  1
  X0+  X660  1  0.487805  0.975610  0.878049  1
  X0+  X661  1  0.414634  0.073171  0.000000  1
  X0+  X662  1  0.512195  0.121951  0.975610  1
  X0+  X663  1  0.585366  0.073171  0.000000  1
  X0+  X664  1  0.585366  0.000000  0.926829  1
  X0+  X665  1  0.585366  0.000000  0.073171  1
  X0+  X666  1  0.170732  0.243902  0.902439  1
  X0+  X667  1  0.219512  0.243902  0.878049  1
  X0+  X668  1  0.317073  0.243902  0.902439  1
  X0+  X669  1  0.268293  0.146341  0.024390  1
  X0+  X670  1  0.341463  0.170732  0.000000  1
  X0+  X671  1  0.170732  0.170732  0.000000  1
  X0+  X672  1  0.170732  0.243902  0.073171  1
  X0+  X673  1  0.268293  0.243902  0.121951  1
  X0+  X674  1  0.170732  0.756098  0.073171  1
  X0+  X675  1  0.243902  0.829268  0.073171  1
  X0+  X676  1  0.170732  0.829268  0.000000  1
  X0+  X677  1  0.170732  0.658537  0.000000  1
  X0+  X678  1  0.170732  0.731707  0.926829  1
  X0+  X679  1  0.268293  0.634146  0.024390  1
  X0+  X680  1  0.170732  0.341463  0.000000  1
  X0+  X681  1  0.268293  0.365854  0.975610  1
  X0+  X682  1  0.000000  0.585366  0.902439  1
  X0+  X683  1  0.024390  0.512195  0.878049  1
  X0+  X684  1  0.914634  0.585366  0.000000  1
  X0+  X685  1  0.024390  0.487805  0.121951  1
  X0+  X686  1  0.975610  0.512195  0.121951  1
  X0+  X687  1  0.000000  0.585366  0.073171  1
  X0+  X688  1  0.000000  0.414634  0.073171  1
  X0+  X689  1  0.926829  0.414634  0.000000  1
  X0+  X690  1  0.073171  0.585366  0.000000  1
  X0+  X691  1  0.073171  0.414634  0.000000  1
  X0+  X692  1  0.024390  0.365854  0.243902  1
  X0+  X693  1  0.975610  0.878049  0.975610  1
  X0+  X694  1  0.829268  0.512195  0.341463  1
  X0+  X695  1  0.243902  0.365854  0.512195  1
  X0+  X696  1  0.902439  0.341463  0.756098  1
  X0+  X697  1  0.975610  0.121951  0.024390  1
  X0+  X698  1  0.585366  0.585366  0.487805  1
  X0+  X699  1  0.000000  0.414634  0.414634  1
  X0+  X700  1  0.756098  0.658537  0.414634  1
  X0+  X701  1  0.512195  0.024390  0.390244  1
  X0+  X702  1  0.658537  0.902439  0.756098  1
  X0+  X703  1  0.414634  0.341463  0.243902  1
  X0+  X704  1  0.000000  0.585366  0.414634  1
  X0+  X705  1  0.000000  0.585366  0.585366  1
  X0+  X706  1  0.000000  0.414634  0.585366  1
  X0+  X707  1  0.073171  0.341463  0.731707  1
