# generated using pymatgen
data_X239Li192P32(S5Cl)32
_symmetry_space_group_name_H-M   'P 1'
_cell_length_a   20.31231100
_cell_length_b   20.31231100
_cell_length_c   20.31231100
_cell_angle_alpha   90.00000000
_cell_angle_beta   90.00000000
_cell_angle_gamma   90.00000000
_symmetry_Int_Tables_number   1
_chemical_formula_structural   X239Li192P32(S5Cl)32
_chemical_formula_sum   'X239 Li192 P32 S160 Cl32'
_cell_volume   8380.65595188
_cell_formula_units_Z   1
loop_
 _symmetry_equiv_pos_site_id
 _symmetry_equiv_pos_as_xyz
  1  'x, y, z'
loop_
 _atom_site_type_symbol
 _atom_site_label
 _atom_site_symmetry_multiplicity
 _atom_site_fract_x
 _atom_site_fract_y
 _atom_site_fract_z
 _atom_site_occupancy
  Li  Li1  1  0.097546  0.915788  0.005444  1
  Li  Li2  1  0.092623  0.018542  0.428160  1
  Li  Li3  1  0.913187  0.477495  0.077636  1
  Li  Li4  1  0.037022  0.452325  0.608685  1
  Li  Li5  1  0.592520  0.915018  0.998031  1
  Li  Li6  1  0.410886  0.008873  0.583942  1
  Li  Li7  1  0.594539  0.439188  0.010154  1
  Li  Li8  1  0.605785  0.463196  0.536116  1
  Li  Li9  1  0.261969  0.417816  0.331312  1
  Li  Li10  1  0.330745  0.404818  0.745396  1
  Li  Li11  1  0.313856  0.933958  0.190733  1
  Li  Li12  1  0.269377  0.913253  0.842082  1
  Li  Li13  1  0.831431  0.589025  0.229070  1
  Li  Li14  1  0.753271  0.410953  0.655733  1
  Li  Li15  1  0.835826  0.085929  0.229247  1
  Li  Li16  1  0.763987  0.907926  0.831471  1
  Li  Li17  1  0.007745  0.333140  0.163003  1
  Li  Li18  1  0.019278  0.275756  0.641492  1
  Li  Li19  1  0.890405  0.743459  0.201711  1
  Li  Li20  1  0.075637  0.654950  0.748551  1
  Li  Li21  1  0.456909  0.354847  0.274453  1
  Li  Li22  1  0.530773  0.331679  0.677473  1
  Li  Li23  1  0.582814  0.781547  0.165478  1
  Li  Li24  1  0.504399  0.670730  0.657580  1
  Li  Li25  1  0.241957  0.595234  0.332955  1
  Li  Li26  1  0.221199  0.606518  0.794643  1
  Li  Li27  1  0.235243  0.090829  0.337219  1
  Li  Li28  1  0.235412  0.912024  0.670056  1
  Li  Li29  1  0.678375  0.414958  0.279436  1
  Li  Li30  1  0.735928  0.577664  0.828397  1
  Li  Li31  1  0.658872  0.083025  0.248828  1
  Li  Li32  1  0.753774  0.084406  0.675113  1
  Li  Li33  1  0.001481  0.168373  0.334177  1
  Li  Li34  1  0.931315  0.227998  0.850520  1
  Li  Li35  1  0.093953  0.731027  0.320975  1
  Li  Li36  1  0.091690  0.832660  0.749072  1
  Li  Li37  1  0.599383  0.222317  0.278741  1
  Li  Li38  1  0.502226  0.162623  0.842209  1
  Li  Li39  1  0.488688  0.666684  0.166571  1
  Li  Li40  1  0.485793  0.828692  0.834855  1
  Li  Li41  1  0.083800  0.406636  0.487840  1
  Li  Li42  1  0.981734  0.382613  0.968424  1
  Li  Li43  1  0.991301  0.884697  0.470693  1
  Li  Li44  1  0.950039  0.893365  0.968135  1
  Li  Li45  1  0.424147  0.419655  0.550843  1
  Li  Li46  1  0.412944  0.413762  0.002402  1
  Li  Li47  1  0.415570  0.988969  0.415013  1
  Li  Li48  1  0.418273  0.911400  0.997565  1
  Li  Li49  1  0.997751  0.162491  0.161744  1
  Li  Li50  1  0.914494  0.161139  0.719586  1
  Li  Li51  1  0.001972  0.658844  0.185856  1
  Li  Li52  1  0.019291  0.721142  0.864731  1
  Li  Li53  1  0.543426  0.295046  0.138730  1
  Li  Li54  1  0.510303  0.164586  0.660891  1
  Li  Li55  1  0.433213  0.686610  0.310035  1
  Li  Li56  1  0.514854  0.666076  0.832813  1
  Li  Li57  1  0.228934  0.363840  0.518837  1
  Li  Li58  1  0.234329  0.139995  0.002858  1
  Li  Li59  1  0.241670  0.744705  0.614449  1
  Li  Li60  1  0.213290  0.638171  0.977750  1
  Li  Li61  1  0.780247  0.135792  0.523606  1
  Li  Li62  1  0.862360  0.219672  0.033518  1
  Li  Li63  1  0.839147  0.662925  0.515739  1
  Li  Li64  1  0.726279  0.637862  0.980449  1
  Li  Li65  1  0.978901  0.334432  0.329825  1
  Li  Li66  1  0.064435  0.314556  0.808607  1
  Li  Li67  1  0.918629  0.748973  0.343481  1
  Li  Li68  1  0.934889  0.844216  0.771277  1
  Li  Li69  1  0.400168  0.245993  0.169597  1
  Li  Li70  1  0.479476  0.325203  0.831681  1
  Li  Li71  1  0.596327  0.739153  0.323268  1
  Li  Li72  1  0.505054  0.838699  0.663937  1
  Li  Li73  1  0.579134  0.023147  0.416166  1
  Li  Li74  1  0.477022  0.976244  0.886938  1
  Li  Li75  1  0.521890  0.415065  0.415717  1
  Li  Li76  1  0.486437  0.483299  0.882355  1
  Li  Li77  1  0.920191  0.995934  0.410452  1
  Li  Li78  1  0.007066  0.023830  0.887338  1
  Li  Li79  1  0.104939  0.542740  0.457519  1
  Li  Li80  1  0.083657  0.479150  0.078640  1
  Li  Li81  1  0.413421  0.074738  0.017361  1
  Li  Li82  1  0.475060  0.117574  0.517406  1
  Li  Li83  1  0.409953  0.589885  0.003002  1
  Li  Li84  1  0.403967  0.492940  0.416818  1
  Li  Li85  1  0.901221  0.051883  0.017970  1
  Li  Li86  1  0.905531  0.992988  0.572691  1
  Li  Li87  1  0.082277  0.517543  0.916610  1
  Li  Li88  1  0.947367  0.554646  0.420131  1
  Li  Li89  1  0.579895  0.087661  0.986130  1
  Li  Li90  1  0.585055  0.002776  0.576161  1
  Li  Li91  1  0.571067  0.594768  0.985459  1
  Li  Li92  1  0.513299  0.597613  0.448593  1
  Li  Li93  1  0.082040  0.082036  0.996978  1
  Li  Li94  1  0.980769  0.111128  0.527678  1
  Li  Li95  1  0.985781  0.606349  0.034170  1
  Li  Li96  1  0.988330  0.583918  0.582744  1
  Li  Li97  1  0.183053  0.068312  0.187615  1
  Li  Li98  1  0.131904  0.999756  0.773604  1
  Li  Li99  1  0.256884  0.585337  0.162348  1
  Li  Li100  1  0.214489  0.493546  0.643084  1
  Li  Li101  1  0.748635  0.080116  0.349684  1
  Li  Li102  1  0.645007  0.955159  0.702911  1
  Li  Li103  1  0.662786  0.598341  0.248373  1
  Li  Li104  1  0.755571  0.587848  0.660963  1
  Li  Li105  1  0.274147  0.948067  0.358636  1
  Li  Li106  1  0.229390  0.079933  0.673588  1
  Li  Li107  1  0.359281  0.513411  0.259450  1
  Li  Li108  1  0.292815  0.476521  0.864158  1
  Li  Li109  1  0.834110  0.925646  0.252470  1
  Li  Li110  1  0.816553  0.055621  0.818114  1
  Li  Li111  1  0.843245  0.444023  0.278374  1
  Li  Li112  1  0.765177  0.415704  0.820155  1
  Li  Li113  1  0.295435  0.283357  0.890350  1
  Li  Li114  1  0.172447  0.254358  0.588930  1
  Li  Li115  1  0.332413  0.727545  0.083644  1
  Li  Li116  1  0.339855  0.837630  0.502862  1
  Li  Li117  1  0.779478  0.333985  0.934514  1
  Li  Li118  1  0.838807  0.250130  0.409254  1
  Li  Li119  1  0.837369  0.749642  0.908111  1
  Li  Li120  1  0.839873  0.827540  0.482433  1
  Li  Li121  1  0.169312  0.254596  0.090952  1
  Li  Li122  1  0.221226  0.136652  0.484316  1
  Li  Li123  1  0.164048  0.755486  0.918197  1
  Li  Li124  1  0.167087  0.675026  0.480752  1
  Li  Li125  1  0.734217  0.162492  0.084820  1
  Li  Li126  1  0.672476  0.264132  0.582395  1
  Li  Li127  1  0.713770  0.788868  0.096967  1
  Li  Li128  1  0.667881  0.832191  0.501391  1
  Li  Li129  1  0.497762  0.152961  0.161051  1
  Li  Li130  1  0.389618  0.219096  0.723223  1
  Li  Li131  1  0.481251  0.840627  0.335781  1
  Li  Li132  1  0.388059  0.724983  0.724405  1
  Li  Li133  1  0.885405  0.235090  0.218226  1
  Li  Li134  1  0.916006  0.339882  0.759185  1
  Li  Li135  1  0.021694  0.817975  0.160125  1
  Li  Li136  1  0.905623  0.692946  0.724984  1
  Li  Li137  1  0.022958  0.969714  0.112389  1
  Li  Li138  1  0.078968  0.977676  0.587374  1
  Li  Li139  1  0.913985  0.498671  0.904531  1
  Li  Li140  1  0.918761  0.417409  0.486328  1
  Li  Li141  1  0.524865  0.969921  0.112198  1
  Li  Li142  1  0.518223  0.891702  0.513528  1
  Li  Li143  1  0.477656  0.522009  0.110313  1
  Li  Li144  1  0.463908  0.547478  0.594129  1
  Li  Li145  1  0.341850  0.081337  0.230957  1
  Li  Li146  1  0.358438  0.003148  0.747288  1
  Li  Li147  1  0.238563  0.417401  0.167477  1
  Li  Li148  1  0.352949  0.554724  0.715605  1
  Li  Li149  1  0.681072  0.933982  0.313726  1
  Li  Li150  1  0.808813  0.928643  0.682661  1
  Li  Li151  1  0.727240  0.541215  0.362492  1
  Li  Li152  1  0.866741  0.521597  0.717326  1
  Li  Li153  1  0.110232  0.262495  0.256865  1
  Li  Li154  1  0.071894  0.157149  0.763163  1
  Li  Li155  1  0.991075  0.862096  0.300957  1
  Li  Li156  1  0.030142  0.773538  0.635536  1
  Li  Li157  1  0.446216  0.186048  0.322006  1
  Li  Li158  1  0.617865  0.222692  0.780660  1
  Li  Li159  1  0.429615  0.816779  0.188065  1
  Li  Li160  1  0.615216  0.760309  0.743494  1
  Li  Li161  1  0.211602  0.361736  0.016292  1
  Li  Li162  1  0.357705  0.228487  0.550764  1
  Li  Li163  1  0.260571  0.857279  0.022828  1
  Li  Li164  1  0.275277  0.777843  0.387294  1
  Li  Li165  1  0.639447  0.281482  0.009390  1
  Li  Li166  1  0.769963  0.360664  0.468602  1
  Li  Li167  1  0.780726  0.864715  0.975648  1
  Li  Li168  1  0.740631  0.718900  0.387862  1
  Li  Li169  1  0.131442  0.513427  0.263620  1
  Li  Li170  1  0.173181  0.428857  0.788120  1
  Li  Li171  1  0.162756  0.921186  0.243110  1
  Li  Li172  1  0.240149  0.083929  0.841214  1
  Li  Li173  1  0.723508  0.484335  0.137663  1
  Li  Li174  1  0.639221  0.472136  0.713382  1
  Li  Li175  1  0.715618  0.968886  0.140978  1
  Li  Li176  1  0.655284  0.021248  0.832028  1
  Li  Li177  1  0.349193  0.227483  0.031636  1
  Li  Li178  1  0.322742  0.273625  0.405927  1
  Li  Li179  1  0.168031  0.758621  0.091979  1
  Li  Li180  1  0.161791  0.829459  0.509518  1
  Li  Li181  1  0.744729  0.328726  0.091092  1
  Li  Li182  1  0.844341  0.250906  0.581578  1
  Li  Li183  1  0.855924  0.721164  0.049835  1
  Li  Li184  1  0.764358  0.763586  0.612210  1
  Li  Li185  1  0.162622  0.244342  0.418562  1
  Li  Li186  1  0.157660  0.231114  0.911210  1
  Li  Li187  1  0.335714  0.666674  0.508662  1
  Li  Li188  1  0.338179  0.753775  0.922780  1
  Li  Li189  1  0.664594  0.229187  0.428235  1
  Li  Li190  1  0.735680  0.180818  0.907625  1
  Li  Li191  1  0.671040  0.659740  0.498460  1
  Li  Li192  1  0.661301  0.750777  0.921420  1
  Cl  Cl193  1  0.138493  0.128729  0.391648  1
  Cl  Cl194  1  0.124211  0.113768  0.873779  1
  Cl  Cl195  1  0.134619  0.625448  0.375086  1
  Cl  Cl196  1  0.126067  0.639509  0.877258  1
  Cl  Cl197  1  0.636105  0.121599  0.362346  1
  Cl  Cl198  1  0.620092  0.129424  0.874118  1
  Cl  Cl199  1  0.648736  0.638047  0.370690  1
  Cl  Cl200  1  0.631926  0.638264  0.889418  1
  Cl  Cl201  1  0.375918  0.385220  0.368876  1
  Cl  Cl202  1  0.371925  0.381011  0.864606  1
  Cl  Cl203  1  0.368187  0.877087  0.389281  1
  Cl  Cl204  1  0.386353  0.881947  0.883589  1
  Cl  Cl205  1  0.871661  0.365770  0.383044  1
  Cl  Cl206  1  0.876141  0.377403  0.872412  1
  Cl  Cl207  1  0.899758  0.872522  0.381801  1
  Cl  Cl208  1  0.866181  0.863792  0.884024  1
  Cl  Cl209  1  0.383377  0.137271  0.123089  1
  Cl  Cl210  1  0.399364  0.130893  0.619317  1
  Cl  Cl211  1  0.385416  0.621666  0.117627  1
  Cl  Cl212  1  0.388819  0.637351  0.633611  1
  Cl  Cl213  1  0.875415  0.142068  0.129680  1
  Cl  Cl214  1  0.870528  0.124957  0.612402  1
  Cl  Cl215  1  0.890947  0.642352  0.132876  1
  Cl  Cl216  1  0.874023  0.619322  0.632181  1
  Cl  Cl217  1  0.134644  0.370279  0.114430  1
  Cl  Cl218  1  0.127813  0.372193  0.595774  1
  Cl  Cl219  1  0.115459  0.877797  0.121051  1
  Cl  Cl220  1  0.124528  0.866330  0.629766  1
  Cl  Cl221  1  0.630622  0.365560  0.098277  1
  Cl  Cl222  1  0.636477  0.379735  0.628394  1
  Cl  Cl223  1  0.627282  0.880655  0.110501  1
  Cl  Cl224  1  0.605862  0.885002  0.610722  1
  S  S225  1  0.048701  0.433767  0.299460  1
  S  S226  1  0.058672  0.440100  0.820938  1
  S  S227  1  0.066709  0.955516  0.319040  1
  S  S228  1  0.036781  0.934646  0.807835  1
  S  S229  1  0.558543  0.432985  0.303299  1
  S  S230  1  0.544870  0.431219  0.786186  1
  S  S231  1  0.550077  0.944329  0.322185  1
  S  S232  1  0.560545  0.937571  0.799915  1
  S  S233  1  0.433555  0.059501  0.311377  1
  S  S234  1  0.447296  0.057847  0.802635  1
  S  S235  1  0.451390  0.559976  0.321965  1
  S  S236  1  0.443976  0.561741  0.802526  1
  S  S237  1  0.939583  0.063233  0.306836  1
  S  S238  1  0.937842  0.063426  0.796412  1
  S  S239  1  0.923861  0.543427  0.297306  1
  S  S240  1  0.949321  0.561133  0.801659  1
  S  S241  1  0.437697  0.451696  0.197964  1
  S  S242  1  0.421462  0.458668  0.677024  1
  S  S243  1  0.440323  0.941117  0.195575  1
  S  S244  1  0.441660  0.944902  0.685612  1
  S  S245  1  0.929445  0.426152  0.185729  1
  S  S246  1  0.950960  0.435412  0.693657  1
  S  S247  1  0.950542  0.933668  0.205609  1
  S  S248  1  0.934886  0.937124  0.681134  1
  S  S249  1  0.056350  0.057505  0.187823  1
  S  S250  1  0.058840  0.048926  0.689861  1
  S  S251  1  0.046969  0.545910  0.181928  1
  S  S252  1  0.069435  0.544923  0.688764  1
  S  S253  1  0.555680  0.052787  0.195532  1
  S  S254  1  0.569605  0.055431  0.688415  1
  S  S255  1  0.557623  0.562468  0.193934  1
  S  S256  1  0.554612  0.554387  0.677853  1
  S  S257  1  0.302120  0.048627  0.444722  1
  S  S258  1  0.305639  0.064283  0.947386  1
  S  S259  1  0.310053  0.565682  0.436511  1
  S  S260  1  0.304364  0.562868  0.947136  1
  S  S261  1  0.811372  0.046642  0.447834  1
  S  S262  1  0.802302  0.075702  0.939892  1
  S  S263  1  0.812580  0.565919  0.444751  1
  S  S264  1  0.801996  0.552744  0.934272  1
  S  S265  1  0.301899  0.435676  0.056852  1
  S  S266  1  0.300171  0.451719  0.559857  1
  S  S267  1  0.320122  0.951951  0.064793  1
  S  S268  1  0.306373  0.938044  0.568422  1
  S  S269  1  0.801210  0.436360  0.054144  1
  S  S270  1  0.813667  0.440007  0.552866  1
  S  S271  1  0.809375  0.956129  0.051064  1
  S  S272  1  0.803682  0.923087  0.555979  1
  S  S273  1  0.192811  0.448476  0.433912  1
  S  S274  1  0.189477  0.448771  0.936582  1
  S  S275  1  0.187587  0.932747  0.448630  1
  S  S276  1  0.204737  0.932507  0.947643  1
  S  S277  1  0.693993  0.451427  0.439595  1
  S  S278  1  0.695151  0.425073  0.926946  1
  S  S279  1  0.679226  0.942732  0.446110  1
  S  S280  1  0.695381  0.946742  0.931374  1
  S  S281  1  0.185124  0.050753  0.060435  1
  S  S282  1  0.184992  0.050425  0.562350  1
  S  S283  1  0.186236  0.554796  0.062385  1
  S  S284  1  0.187291  0.567823  0.547210  1
  S  S285  1  0.680851  0.056416  0.053824  1
  S  S286  1  0.698830  0.053170  0.565755  1
  S  S287  1  0.677271  0.541833  0.041655  1
  S  S288  1  0.693375  0.556179  0.561981  1
  S  S289  1  0.436949  0.306436  0.061752  1
  S  S290  1  0.455179  0.308088  0.577291  1
  S  S291  1  0.431762  0.804449  0.056082  1
  S  S292  1  0.447361  0.802946  0.557492  1
  S  S293  1  0.950006  0.302157  0.056197  1
  S  S294  1  0.946943  0.315375  0.551455  1
  S  S295  1  0.939121  0.814958  0.065824  1
  S  S296  1  0.947266  0.803121  0.549720  1
  S  S297  1  0.056859  0.307185  0.425852  1
  S  S298  1  0.057926  0.294946  0.935743  1
  S  S299  1  0.063424  0.792887  0.433498  1
  S  S300  1  0.052723  0.810585  0.946273  1
  S  S301  1  0.571196  0.313719  0.451383  1
  S  S302  1  0.545176  0.309860  0.936648  1
  S  S303  1  0.558250  0.803514  0.435249  1
  S  S304  1  0.553786  0.811582  0.941091  1
  S  S305  1  0.437243  0.210379  0.450039  1
  S  S306  1  0.431484  0.188299  0.946267  1
  S  S307  1  0.434037  0.692543  0.435919  1
  S  S308  1  0.446292  0.689624  0.938325  1
  S  S309  1  0.943408  0.189280  0.441591  1
  S  S310  1  0.944950  0.172272  0.955614  1
  S  S311  1  0.937983  0.680748  0.440616  1
  S  S312  1  0.941734  0.691029  0.957526  1
  S  S313  1  0.069653  0.185895  0.061327  1
  S  S314  1  0.060908  0.199474  0.554640  1
  S  S315  1  0.058974  0.699445  0.072073  1
  S  S316  1  0.059624  0.683584  0.555511  1
  S  S317  1  0.558466  0.196745  0.054769  1
  S  S318  1  0.566806  0.189746  0.552125  1
  S  S319  1  0.557568  0.697168  0.062500  1
  S  S320  1  0.555488  0.676205  0.543130  1
  S  S321  1  0.308813  0.314048  0.196314  1
  S  S322  1  0.299348  0.298945  0.687173  1
  S  S323  1  0.306618  0.808358  0.176007  1
  S  S324  1  0.301088  0.808452  0.696579  1
  S  S325  1  0.796563  0.314268  0.201523  1
  S  S326  1  0.819074  0.308816  0.691150  1
  S  S327  1  0.798926  0.824221  0.184888  1
  S  S328  1  0.827577  0.803528  0.706866  1
  S  S329  1  0.315376  0.186246  0.306020  1
  S  S330  1  0.301383  0.187926  0.806791  1
  S  S331  1  0.310007  0.696662  0.304540  1
  S  S332  1  0.306729  0.696384  0.816081  1
  S  S333  1  0.809177  0.186616  0.303411  1
  S  S334  1  0.822063  0.182892  0.800779  1
  S  S335  1  0.812962  0.698298  0.291535  1
  S  S336  1  0.813517  0.679668  0.811852  1
  S  S337  1  0.190352  0.196247  0.198374  1
  S  S338  1  0.175787  0.189463  0.695807  1
  S  S339  1  0.194061  0.689287  0.188374  1
  S  S340  1  0.186703  0.691357  0.706763  1
  S  S341  1  0.682970  0.191769  0.194208  1
  S  S342  1  0.698322  0.195348  0.690776  1
  S  S343  1  0.683834  0.708665  0.188231  1
  S  S344  1  0.702159  0.698314  0.691110  1
  S  S345  1  0.203110  0.306894  0.319244  1
  S  S346  1  0.190894  0.306545  0.814839  1
  S  S347  1  0.195504  0.812138  0.299929  1
  S  S348  1  0.190897  0.817980  0.818135  1
  S  S349  1  0.684858  0.296126  0.320757  1
  S  S350  1  0.709771  0.299375  0.817306  1
  S  S351  1  0.698212  0.811012  0.319006  1
  S  S352  1  0.699787  0.805159  0.814184  1
  S  S353  1  0.004859  0.992632  0.998755  1
  S  S354  1  0.998406  0.998091  0.500514  1
  S  S355  1  0.994718  0.496043  0.996366  1
  S  S356  1  0.006924  0.496036  0.502747  1
  S  S357  1  0.502594  0.996064  0.999076  1
  S  S358  1  0.495402  0.005051  0.500339  1
  S  S359  1  0.492934  0.502782  0.996287  1
  S  S360  1  0.493800  0.492607  0.495508  1
  S  S361  1  0.997683  0.247917  0.246008  1
  S  S362  1  0.992306  0.246207  0.752024  1
  S  S363  1  0.995140  0.754401  0.254556  1
  S  S364  1  0.006409  0.750500  0.750953  1
  S  S365  1  0.494870  0.247175  0.235842  1
  S  S366  1  0.503626  0.241309  0.752460  1
  S  S367  1  0.503647  0.754725  0.249767  1
  S  S368  1  0.501922  0.750069  0.746019  1
  S  S369  1  0.250408  0.004736  0.256395  1
  S  S370  1  0.245174  0.997475  0.756876  1
  S  S371  1  0.246362  0.505234  0.250495  1
  S  S372  1  0.256576  0.499151  0.754563  1
  S  S373  1  0.748898  0.006966  0.252210  1
  S  S374  1  0.744227  0.993916  0.753106  1
  S  S375  1  0.743170  0.509269  0.249832  1
  S  S376  1  0.752084  0.498775  0.738933  1
  S  S377  1  0.241557  0.251659  0.993256  1
  S  S378  1  0.250396  0.249877  0.498888  1
  S  S379  1  0.246884  0.746441  0.001338  1
  S  S380  1  0.253653  0.753723  0.500883  1
  S  S381  1  0.751670  0.246876  0.006135  1
  S  S382  1  0.758625  0.247726  0.499630  1
  S  S383  1  0.756631  0.751026  0.994684  1
  S  S384  1  0.753095  0.746630  0.500140  1
  P  P385  1  0.004212  0.004090  0.256258  1
  P  P386  1  0.989530  0.996072  0.741347  1
  P  P387  1  0.987707  0.487935  0.241620  1
  P  P388  1  0.007554  0.495648  0.752196  1
  P  P389  1  0.495217  0.999798  0.257861  1
  P  P390  1  0.504921  0.000407  0.742093  1
  P  P391  1  0.503823  0.502958  0.255408  1
  P  P392  1  0.491862  0.501685  0.736494  1
  P  P393  1  0.253531  0.999787  0.005525  1
  P  P394  1  0.245989  0.991050  0.507073  1
  P  P395  1  0.246970  0.500589  0.002635  1
  P  P396  1  0.249267  0.509166  0.493873  1
  P  P397  1  0.747086  0.010044  0.993035  1
  P  P398  1  0.747751  0.990194  0.503498  1
  P  P399  1  0.744870  0.488330  0.987201  1
  P  P400  1  0.755434  0.504087  0.500903  1
  P  P401  1  0.006467  0.237934  0.001742  1
  P  P402  1  0.002359  0.254040  0.492555  1
  P  P403  1  0.999598  0.754588  0.012310  1
  P  P404  1  0.001889  0.738662  0.493613  1
  P  P405  1  0.492801  0.249720  0.997652  1
  P  P406  1  0.508357  0.258888  0.506093  1
  P  P407  1  0.498113  0.750965  0.000954  1
  P  P408  1  0.499114  0.744041  0.493396  1
  P  P409  1  0.256398  0.250829  0.253170  1
  P  P410  1  0.241329  0.245599  0.749319  1
  P  P411  1  0.252362  0.751378  0.241224  1
  P  P412  1  0.244897  0.754158  0.760781  1
  P  P413  1  0.743118  0.247488  0.254048  1
  P  P414  1  0.762570  0.247711  0.748708  1
  P  P415  1  0.747288  0.762134  0.245790  1
  P  P416  1  0.760736  0.746534  0.758344  1
  X0+  X417  1  0.085366  0.073171  0.975610  1
  X0+  X418  1  0.243902  0.829268  0.085366  1
  X0+  X419  1  0.829268  0.243902  0.085366  1
  X0+  X420  1  0.658537  0.231707  0.902439  1
  X0+  X421  1  0.731707  0.085366  0.829268  1
  X0+  X422  1  0.256098  0.829268  0.414634  1
  X0+  X423  1  0.146341  0.780488  0.512195  1
  X0+  X424  1  0.243902  0.829268  0.585366  1
  X0+  X425  1  0.268293  0.329268  0.902439  1
  X0+  X426  1  0.243902  0.170732  0.902439  1
  X0+  X427  1  0.743902  0.073171  0.658537  1
  X0+  X428  1  0.853659  0.024390  0.707317  1
  X0+  X429  1  0.878049  0.024390  0.524390  1
  X0+  X430  1  0.000000  0.085366  0.585366  1
  X0+  X431  1  0.231707  0.341463  0.073171  1
  X0+  X432  1  0.146341  0.268293  0.024390  1
  X0+  X433  1  0.658537  0.243902  0.414634  1
  X0+  X434  1  0.707317  0.146341  0.463415  1
  X0+  X435  1  0.634146  0.951220  0.707317  1
  X0+  X436  1  0.731707  0.902439  0.658537  1
  X0+  X437  1  0.585366  0.975610  0.585366  1
  X0+  X438  1  0.085366  0.829268  0.731707  1
  X0+  X439  1  0.073171  0.756098  0.658537  1
  X0+  X440  1  0.256098  0.829268  0.902439  1
  X0+  X441  1  0.170732  0.731707  0.902439  1
  X0+  X442  1  0.243902  0.658537  0.902439  1
  X0+  X443  1  0.073171  0.731707  0.829268  1
  X0+  X444  1  0.731707  0.585366  0.329268  1
  X0+  X445  1  0.743902  0.414634  0.170732  1
  X0+  X446  1  0.634146  0.463415  0.219512  1
  X0+  X447  1  0.634146  0.512195  0.268293  1
  X0+  X448  1  0.902439  0.341463  0.256098  1
  X0+  X449  1  0.756098  0.414634  0.329268  1
  X0+  X450  1  0.743902  0.585366  0.170732  1
  X0+  X451  1  0.853659  0.524390  0.219512  1
  X0+  X452  1  0.853659  0.463415  0.268293  1
  X0+  X453  1  0.975610  0.268293  0.365854  1
  X0+  X454  1  0.829268  0.256098  0.414634  1
  X0+  X455  1  0.829268  0.219512  0.560976  1
  X0+  X456  1  0.829268  0.243902  0.585366  1
  X0+  X457  1  0.479675  0.325203  0.341463  1
  X0+  X458  1  0.658537  0.260163  0.089431  1
  X0+  X459  1  0.707317  0.365854  0.024390  1
  X0+  X460  1  0.756098  0.365854  0.975610  1
  X0+  X461  1  0.500000  0.341463  0.170732  1
  X0+  X462  1  0.609756  0.268293  0.231707  1
  X0+  X463  1  0.512195  0.170732  0.329268  1
  X0+  X464  1  0.585366  0.170732  0.268293  1
  X0+  X465  1  0.500000  0.170732  0.170732  1
  X0+  X466  1  0.390244  0.219512  0.219512  1
  X0+  X467  1  0.658537  0.256098  0.585366  1
  X0+  X468  1  0.731707  0.365854  0.512195  1
  X0+  X469  1  0.256098  0.170732  0.097561  1
  X0+  X470  1  0.243902  0.146341  0.073171  1
  X0+  X471  1  0.365854  0.219512  0.024390  1
  X0+  X472  1  0.231707  0.658537  0.414634  1
  X0+  X473  1  0.975610  0.914634  0.414634  1
  X0+  X474  1  0.585366  0.739837  0.333333  1
  X0+  X475  1  0.512195  0.634146  0.268293  1
  X0+  X476  1  0.333333  0.902439  0.260163  1
  X0+  X477  1  0.585366  0.743902  0.170732  1
  X0+  X478  1  0.414634  0.747967  0.333333  1
  X0+  X479  1  0.475610  0.853659  0.268293  1
  X0+  X480  1  0.512195  0.853659  0.219512  1
  X0+  X481  1  0.170732  0.902439  0.243902  1
  X0+  X482  1  0.414634  0.731707  0.170732  1
  X0+  X483  1  0.158537  0.000000  0.829268  1
  X0+  X484  1  0.170732  -0.012195  0.658537  1
  X0+  X485  1  0.829268  0.658537  0.500000  1
  X0+  X486  1  0.414634  0.073171  0.012195  1
  X0+  X487  1  0.414634  0.024390  0.073171  1
  X0+  X488  1  0.902439  0.414634  0.487805  1
  X0+  X489  1  0.902439  0.487805  0.414634  1
  X0+  X490  1  0.000000  0.414634  0.414634  1
  X0+  X491  1  0.333333  0.983740  0.829268  1
  X0+  X492  1  0.268293  0.878049  0.756098  1
  X0+  X493  1  0.317073  0.926829  0.682927  1
  X0+  X494  1  0.317073  0.024390  0.658537  1
  X0+  X495  1  0.463415  0.878049  0.463415  1
  X0+  X496  1  0.487805  0.902439  0.414634  1
  X0+  X497  1  0.414634  0.902439  0.487805  1
  X0+  X498  1  0.439024  0.926829  0.560976  1
  X0+  X499  1  0.414634  0.024390  0.585366  1
  X0+  X500  1  0.902439  0.658537  0.731707  1
  X0+  X501  1  0.902439  0.731707  0.658537  1
  X0+  X502  1  0.000000  0.829268  0.170732  1
  X0+  X503  1  0.024390  0.853659  0.219512  1
  X0+  X504  1  0.975610  0.853659  0.268293  1
  X0+  X505  1  0.097561  0.756098  0.170732  1
  X0+  X506  1  0.768293  0.756098  0.390244  1
  X0+  X507  1  0.829268  0.829268  0.487805  1
  X0+  X508  1  0.902439  0.756098  0.341463  1
  X0+  X509  1  0.012195  0.902439  0.585366  1
  X0+  X510  1  0.016260  0.089431  0.414634  1
  X0+  X511  1  0.121951  0.024390  0.463415  1
  X0+  X512  1  0.121951  0.951220  0.512195  1
  X0+  X513  1  0.487805  0.829268  0.658537  1
  X0+  X514  1  0.512195  0.853659  0.707317  1
  X0+  X515  1  0.390244  0.707317  0.707317  1
  X0+  X516  1  0.414634  0.731707  0.658537  1
  X0+  X517  1  0.487805  0.658537  0.658537  1
  X0+  X518  1  0.585366  0.756098  0.658537  1
  X0+  X519  1  0.000000  0.585366  0.902439  1
  X0+  X520  1  0.073171  0.585366  0.975610  1
  X0+  X521  1  0.402439  0.170732  0.731707  1
  X0+  X522  1  0.390244  0.219512  0.707317  1
  X0+  X523  1  0.463415  0.219512  0.634146  1
  X0+  X524  1  0.317073  0.487805  0.829268  1
  X0+  X525  1  0.317073  0.560976  0.804878  1
  X0+  X526  1  0.341463  0.414634  0.756098  1
  X0+  X527  1  0.414634  0.341463  0.756098  1
  X0+  X528  1  0.463415  0.280488  0.853659  1
  X0+  X529  1  0.560976  0.170732  0.682927  1
  X0+  X530  1  0.585366  0.170732  0.756098  1
  X0+  X531  1  0.512195  0.170732  0.829268  1
  X0+  X532  1  0.414634  0.487805  0.902439  1
  X0+  X533  1  0.463415  0.463415  0.878049  1
  X0+  X534  1  0.414634  0.414634  0.000000  1
  X0+  X535  1  0.170732  0.487805  0.158537  1
  X0+  X536  1  0.085366  0.341463  0.243902  1
  X0+  X537  1  0.170732  0.414634  0.243902  1
  X0+  X538  1  0.268293  0.390244  0.268293  1
  X0+  X539  1  0.731707  0.585366  0.658537  1
  X0+  X540  1  0.829268  0.512195  0.658537  1
  X0+  X541  1  0.268293  0.609756  0.219512  1
  X0+  X542  1  0.341463  0.585366  0.243902  1
  X0+  X543  1  0.170732  0.585366  0.256098  1
  X0+  X544  1  0.268293  0.463415  0.365854  1
  X0+  X545  1  0.317073  0.487805  0.341463  1
  X0+  X546  1  0.170732  0.512195  0.317073  1
  X0+  X547  1  0.219512  0.512195  0.365854  1
  X0+  X548  1  0.512195  0.585366  0.414634  1
  X0+  X549  1  0.512195  0.609756  0.463415  1
  X0+  X550  1  0.439024  0.560976  0.439024  1
  X0+  X551  1  0.414634  0.585366  0.512195  1
  X0+  X552  1  0.414634  0.487805  0.414634  1
  X0+  X553  1  0.414634  0.512195  0.585366  1
  X0+  X554  1  0.439024  0.439024  0.560976  1
  X0+  X555  1  0.414634  0.414634  0.487805  1
  X0+  X556  1  0.731707  0.390244  0.707317  1
  X0+  X557  1  0.731707  0.414634  0.658537  1
  X0+  X558  1  0.658537  0.487805  0.658537  1
  X0+  X559  1  0.560976  0.439024  0.439024  1
  X0+  X560  1  0.585366  0.414634  0.512195  1
  X0+  X561  1  0.560976  0.560976  0.560976  1
  X0+  X562  1  0.585366  0.487805  0.585366  1
  X0+  X563  1  0.000000  0.585366  0.414634  1
  X0+  X564  1  0.024390  0.609756  0.463415  1
  X0+  X565  1  0.585366  0.000000  0.414634  1
  X0+  X566  1  0.658537  0.000000  0.341463  1
  X0+  X567  1  0.878049  0.707317  0.219512  1
  X0+  X568  1  0.902439  0.731707  0.170732  1
  X0+  X569  1  0.024390  0.634146  0.268293  1
  X0+  X570  1  0.024390  0.658537  0.317073  1
  X0+  X571  1  0.097561  0.731707  0.317073  1
  X0+  X572  1  0.000000  0.658537  0.170732  1
  X0+  X573  1  0.829268  0.000000  0.170732  1
  X0+  X574  1  0.829268  0.073171  0.243902  1
  X0+  X575  1  0.658537  0.975610  0.170732  1
  X0+  X576  1  0.731707  0.902439  0.170732  1
  X0+  X577  1  0.658537  0.902439  0.243902  1
  X0+  X578  1  0.829268  0.902439  0.243902  1
  X0+  X579  1  0.756098  0.902439  0.341463  1
  X0+  X580  1  0.170732  0.146341  0.487805  1
  X0+  X581  1  0.170732  0.243902  0.414634  1
  X0+  X582  1  0.170732  0.268293  0.585366  1
  X0+  X583  1  0.170732  0.317073  0.512195  1
  X0+  X584  1  0.902439  0.414634  -0.012195  1
  X0+  X585  1  0.975610  0.414634  0.902439  1
  X0+  X586  1  0.975610  0.463415  0.878049  1
  X0+  X587  1  0.975610  0.341463  0.829268  1
  X0+  X588  1  0.902439  0.341463  0.731707  1
  X0+  X589  1  0.926829  0.317073  0.682927  1
  X0+  X590  1  0.024390  0.268293  0.634146  1
  X0+  X591  1  0.073171  0.268293  0.658537  1
  X0+  X592  1  0.073171  0.170732  0.756098  1
  X0+  X593  1  0.073171  0.195122  0.682927  1
  X0+  X594  1  0.097561  0.243902  0.829268  1
  X0+  X595  1  0.000000  0.146341  0.829268  1
  X0+  X596  1  0.756098  0.414634  0.829268  1
  X0+  X597  1  0.829268  0.487805  0.829268  1
  X0+  X598  1  0.585366  0.487805  0.902439  1
  X0+  X599  1  0.658537  0.487805  0.829268  1
  X0+  X600  1  -0.012195  0.902439  0.902439  1
  X0+  X601  1  0.902439  0.512195  0.073171  1
  X0+  X602  1  0.902439  0.585366  0.000000  1
  X0+  X603  1  0.902439  0.756098  0.829268  1
  X0+  X604  1  0.902439  0.829268  0.756098  1
  X0+  X605  1  0.414634  0.756098  0.829268  1
  X0+  X606  1  0.487805  0.829268  0.829268  1
  X0+  X607  1  0.414634  0.902439  -0.012195  1
  X0+  X608  1  0.560976  0.926829  0.926829  1
  X0+  X609  1  0.585366  0.902439  0.000000  1
  X0+  X610  1  0.487805  0.902439  0.902439  1
  X0+  X611  1  0.512195  0.658537  0.829268  1
  X0+  X612  1  0.585366  0.731707  0.829268  1
  X0+  X613  1  0.829268  0.658537  0.024390  1
  X0+  X614  1  0.829268  0.731707  0.073171  1
  X0+  X615  1  0.682927  0.804878  0.926829  1
  X0+  X616  1  0.756098  0.829268  0.902439  1
  X0+  X617  1  0.658537  0.731707  0.902439  1
  X0+  X618  1  0.658537  0.829268  0.000000  1
  X0+  X619  1  0.658537  0.658537  -0.012195  1
  X0+  X620  1  0.804878  0.682927  0.926829  1
  X0+  X621  1  0.829268  0.756098  0.902439  1
  X0+  X622  1  0.731707  0.658537  0.902439  1
  X0+  X623  1  0.829268  0.829268  0.975610  1
  X0+  X624  1  0.731707  0.829268  0.073171  1
  X0+  X625  1  0.585366  0.585366  0.975610  1
  X0+  X626  1  0.731707  0.585366  0.829268  1
  X0+  X627  1  0.756098  0.902439  0.829268  1
  X0+  X628  1  0.902439  0.902439  0.000000  1
  X0+  X629  1  0.073171  0.902439  0.000000  1
  X0+  X630  1  0.902439  0.170732  0.243902  1
  X0+  X631  1  0.731707  0.097561  0.317073  1
  X0+  X632  1  0.256098  0.658537  0.585366  1
  X0+  X633  1  0.365854  0.707317  0.512195  1
  X0+  X634  1  0.975610  0.585366  0.585366  1
  X0+  X635  1  0.414634  0.585366  0.000000  1
  X0+  X636  1  0.170732  0.414634  0.731707  1
  X0+  X637  1  0.170732  0.439024  0.804878  1
  X0+  X638  1  0.243902  0.414634  0.658537  1
  X0+  X639  1  0.170732  0.487805  0.658537  1
  X0+  X640  1  0.097561  0.487805  0.585366  1
  X0+  X641  1  0.170732  0.585366  0.756098  1
  X0+  X642  1  0.073171  0.414634  0.000000  1
  X0+  X643  1  0.902439  0.170732  0.731707  1
  X0+  X644  1  0.585366  0.317073  0.731707  1
  X0+  X645  1  0.219512  0.121951  0.756098  1
  X0+  X646  1  0.268293  0.658537  0.073171  1
  X0+  X647  1  0.439024  0.073171  0.439024  1
  X0+  X648  1  0.341463  0.073171  0.243902  1
  X0+  X649  1  0.341463  0.170732  0.512195  1
  X0+  X650  1  0.585366  0.073171  0.975610  1
  X0+  X651  1  0.658537  0.658537  0.487805  1
  X0+  X652  1  0.829268  0.243902  0.902439  1
  X0+  X653  1  0.073171  0.170732  0.268293  1
  X0+  X654  1  0.658537  0.829268  0.512195  1
  X0+  X655  1  0.902439  0.097561  0.000000  1
